$ MSC.Nastran input file created on February  22, 2018 at 16:49:01 by
$ Patran 2017.0.2
$ Linear Static Analysis, Database
$ Direct Text Input for Bulk Data
CBEAM    500     1       500     501     -1.     0.     0. 
CBEAM    501     1       501     1       -1.     0.     0. 
$ Elements and Element Properties for region : cross_section_1
$ Pset: "cross_section_1" will be imported as: "pbeam.1"
CBEAM    1       1       1       2       -1.     0.     0.
CBEAM    2       1       2       3       -1.     0.     0.
CBEAM    3       1       3       4       -1.     0.     0.
CBEAM    4       1       4       5       -1.     0.     0.
CBEAM    5       1       5       6       -1.     0.     0.
$ Elements and Element Properties for region : cross_section_2
$ Pset: "cross_section_2" will be imported as: "pbeam.2"
CBEAM    6       2       6       8       -1.     0.     0.
CBEAM    7       2       8       9       -1.     0.     0.
CBEAM    8       2       9       10      -1.     0.     0.
CBEAM    9       2       10      11      -1.     0.     0.
CBEAM    10      2       11      12      -1.     0.     0.
$ Elements and Element Properties for region : cross_section_3
$ Pset: "cross_section_3" will be imported as: "pbeam.3"
CBEAM    11      3       12      14      -1.     0.     0.
CBEAM    12      3       14      15      -1.     0.     0.
CBEAM    13      3       15      16      -1.     0.     0.
CBEAM    14      3       16      17      -1.     0.     0.
CBEAM    15      3       17      18      -1.     0.     0.
$ Elements and Element Properties for region : cross_section_4
$ Pset: "cross_section_4" will be imported as: "pbeam.4"
CBEAM    16      4       18      20      -1.     0.     0.
CBEAM    17      4       20      21      -1.     0.     0.
CBEAM    18      4       21      22      -1.     0.     0.
CBEAM    19      4       22      23      -1.     0.     0.
CBEAM    20      4       23      24      -1.     0.     0.
$ Elements and Element Properties for region : cross_section_5
$ Pset: "cross_section_5" will be imported as: "pbeam.5"
CBEAM    21      5       24      26      -1.     0.     0.
CBEAM    22      5       26      27      -1.     0.     0.
CBEAM    23      5       27      28      -1.     0.     0.
CBEAM    24      5       28      29      -1.     0.     0.
CBEAM    25      5       29      30      -1.     0.     0.
$ Elements and Element Properties for region : cross_section_6
$ Pset: "cross_section_6" will be imported as: "pbeam.6"
CBEAM    26      6       30      32      -1.     0.     0.
CBEAM    27      6       32      33      -1.     0.     0.
CBEAM    28      6       33      34      -1.     0.     0.
CBEAM    29      6       34      35      -1.     0.     0.
CBEAM    30      6       35      36      -1.     0.     0.
$ Elements and Element Properties for region : cross_section_7
$ Pset: "cross_section_7" will be imported as: "pbeam.7"
CBEAM    31      7       36      38      -1.     0.     0.
CBEAM    32      7       38      39      -1.     0.     0.
CBEAM    33      7       39      40      -1.     0.     0.
CBEAM    34      7       40      41      -1.     0.     0.
CBEAM    35      7       41      42      -1.     0.     0.
$ Elements and Element Properties for region : cross_section_8
$ Pset: "cross_section_8" will be imported as: "pbeam.8"
CBEAM    36      8       42      44      -1.     0.     0.
CBEAM    37      8       44      45      -1.     0.     0.
CBEAM    38      8       45      46      -1.     0.     0.
CBEAM    39      8       46      47      -1.     0.     0.
CBEAM    40      8       47      48      -1.     0.     0.
$ Elements and Element Properties for region : cross_section_9
$ Pset: "cross_section_9" will be imported as: "pbeam.9"
CBEAM    41      9       48      50      -1.     0.     0.
CBEAM    42      9       50      51      -1.     0.     0.
CBEAM    43      9       51      52      -1.     0.     0.
CBEAM    44      9       52      53      -1.     0.     0.
CBEAM    45      9       53      54      -1.     0.     0.
$ Elements and Element Properties for region : cross_section_10
$ Pset: "cross_section_10" will be imported as: "pbeam.10"
CBEAM    46      10      54      56      -1.     0.     0.
CBEAM    47      10      56      57      -1.     0.     0.
CBEAM    48      10      57      58      -1.     0.     0.
CBEAM    49      10      58      59      -1.     0.     0.
CBEAM    50      10      59      60      -1.     0.     0.
$ Elements and Element Properties for region : cross_section_11
$ Pset: "cross_section_11" will be imported as: "pbeam.11"
CBEAM    51      11      60      62      -1.     0.     0.
CBEAM    52      11      62      63      -1.     0.     0.
CBEAM    53      11      63      64      -1.     0.     0.
CBEAM    54      11      64      65      -1.     0.     0.
CBEAM    55      11      65      66      -1.     0.     0.
$ Elements and Element Properties for region : cross_section_12
$ Pset: "cross_section_12" will be imported as: "pbeam.12"
CBEAM    56      12      66      68      -1.     0.     0.
CBEAM    57      12      68      69      -1.     0.     0.
CBEAM    58      12      69      70      -1.     0.     0.
CBEAM    59      12      70      71      -1.     0.     0.
CBEAM    60      12      71      72      -1.     0.     0.
$ Elements and Element Properties for region : cross_section_13
$ Pset: "cross_section_13" will be imported as: "pbeam.13"
CBEAM    61      13      72      74      -1.     0.     0.
CBEAM    62      13      74      75      -1.     0.     0.
CBEAM    63      13      75      76      -1.     0.     0.
CBEAM    64      13      76      77      -1.     0.     0.
CBEAM    65      13      77      78      -1.     0.     0.
$ Elements and Element Properties for region : cross_section_14
$ Pset: "cross_section_14" will be imported as: "pbeam.14"
CBEAM    66      14      78      80      -1.     0.     0.
CBEAM    67      14      80      81      -1.     0.     0.
CBEAM    68      14      81      82      -1.     0.     0.
CBEAM    69      14      82      83      -1.     0.     0.
CBEAM    70      14      83      84      -1.     0.     0.
$ Elements and Element Properties for region : cross_section_15
$ Pset: "cross_section_15" will be imported as: "pbeam.15"
CBEAM    71      15      84      86      -1.     0.     0.
CBEAM    72      15      86      87      -1.     0.     0.
CBEAM    73      15      87      88      -1.     0.     0.
CBEAM    74      15      88      89      -1.     0.     0.
CBEAM    75      15      89      90      -1.     0.     0.
$ Elements and Element Properties for region : cross_section_16
$ Pset: "cross_section_16" will be imported as: "pbeam.16"
CBEAM    76      16      90      92      -1.     0.     0.
CBEAM    77      16      92      93      -1.     0.     0.
CBEAM    78      16      93      94      -1.     0.     0.
CBEAM    79      16      94      95      -1.     0.     0.
CBEAM    80      16      95      96      -1.     0.     0.
$ Elements and Element Properties for region : cross_section_17
$ Pset: "cross_section_17" will be imported as: "pbeam.17"
CBEAM    81      17      96      98      -1.     0.     0.
CBEAM    82      17      98      99      -1.     0.     0.
CBEAM    83      17      99      100     -1.     0.     0.
CBEAM    84      17      100     101     -1.     0.     0.
CBEAM    85      17      101     102     -1.     0.     0.
$ Elements and Element Properties for region : cross_section_18
$ Pset: "cross_section_18" will be imported as: "pbeam.18"
CBEAM    86      18      102     104     -1.     0.     0.
CBEAM    87      18      104     105     -1.     0.     0.
CBEAM    88      18      105     106     -1.     0.     0.
CBEAM    89      18      106     107     -1.     0.     0.
CBEAM    90      18      107     108     -1.     0.     0.
$ Elements and Element Properties for region : cross_section_19
$ Pset: "cross_section_19" will be imported as: "pbeam.19"
CBEAM    91      19      108     110     -1.     0.     0.
CBEAM    92      19      110     111     -1.     0.     0.
CBEAM    93      19      111     112     -1.     0.     0.
CBEAM    94      19      112     113     -1.     0.     0.
CBEAM    95      19      113     114     -1.     0.     0.
$ Elements and Element Properties for region : cross_section_20
$ Pset: "cross_section_20" will be imported as: "pbeam.20"
CBEAM    96      20      114     116     -1.     0.     0.
CBEAM    97      20      116     117     -1.     0.     0.
CBEAM    98      20      117     118     -1.     0.     0.
CBEAM    99      20      118     119     -1.     0.     0.
CBEAM    100     20      119     120     -1.     0.     0.
$ Elements and Element Properties for region : cross_section_21
$ Pset: "cross_section_21" will be imported as: "pbeam.21"
CBEAM    101     21      120     122     -1.     0.     0.
CBEAM    102     21      122     123     -1.     0.     0.
CBEAM    103     21      123     124     -1.     0.     0.
CBEAM    104     21      124     125     -1.     0.     0.
CBEAM    105     21      125     126     -1.     0.     0.
$ Elements and Element Properties for region : cross_section_22
$ Pset: "cross_section_22" will be imported as: "pbeam.22"
CBEAM    106     22      126     128     -1.     0.     0.
CBEAM    107     22      128     129     -1.     0.     0.
CBEAM    108     22      129     130     -1.     0.     0.
CBEAM    109     22      130     131     -1.     0.     0.
CBEAM    110     22      131     132     -1.     0.     0.
$ Elements and Element Properties for region : cross_section_23
$ Pset: "cross_section_23" will be imported as: "pbeam.23"
CBEAM    111     23      132     134     -1.     0.     0.
CBEAM    112     23      134     135     -1.     0.     0.
CBEAM    113     23      135     136     -1.     0.     0.
CBEAM    114     23      136     137     -1.     0.     0.
CBEAM    115     23      137     138     -1.     0.     0.
$ Elements and Element Properties for region : cross_section_24
$ Pset: "cross_section_24" will be imported as: "pbeam.24"
CBEAM    116     24      138     140     -1.     0.     0.
CBEAM    117     24      140     141     -1.     0.     0.
CBEAM    118     24      141     142     -1.     0.     0.
CBEAM    119     24      142     143     -1.     0.     0.
CBEAM    120     24      143     144     -1.     0.     0.
$ Nodes of the Entire Model
GRID     500            1.04223 -0.040000.00000  
GRID     501            1.04237 -0.020000.00000  
GRID     1              1.0425   0.      0.
GRID     2              1.04263 .02      0.
GRID     3              1.04277 .04      0.
GRID     4              1.0429  .06      0.
GRID     5              1.04303 .08      0.
GRID     6              1.04317 .1       0.
GRID     8              1.0433  .12      0.
GRID     9              1.04343 .14      0.
GRID     10             1.04357 .16      0.
GRID     11             1.0437  .18      0.
GRID     12             1.04383 .2       0.
GRID     14             1.04397 .22      0.
GRID     15             1.0441  .24      0.
GRID     16             1.04423 .26      0.
GRID     17             1.04437 .28      0.
GRID     18             1.0445  .3       0.
GRID     20             1.04463 .32      0.
GRID     21             1.04477 .34      0.
$ ... 103 like lines cut
$ Loads for Load Case : Default
$ Referenced Coordinate Frames
$-------$-------$-------$-------$-------$-------$-------$-------$-------
PBEAM,1,1,2.063E-03,1.190E-06,9.837E-08,0.0,3.549E-07,0.000E+00,
-.0425000,-.0120000,-.0425000,.0120000,.0425000,.0120000,.0425000,-.0120000
,YESA,1.0

,0.0,0.0,0.0,0.0,0.0,0.0,0.0,0.0,
,0.0,0.0,0.0,0.0,0.0,0.0,0.0,0.0
$$$$$$$
PBEAM,2,1,1.767E-03,9.290E-07,7.472E-08,0.0,2.429E-07,0.000E+00,
-.0410833,-.011380,-.0410833,.011380,.0410833,.011380,.0410833,-.011380
,YESA,1.0

,0.0,0.0,0.0,0.0,0.0,0.0,0.0,0.0,
,0.0,0.0,0.0,0.0,0.0,0.0,0.0,0.0
$$$$$$$
PBEAM,3,1,1.628E-03,7.950E-07,6.035E-08,0.0,2.006E-07,0.000E+00,
-.039666,-.010775,-.039666,.010775,.039666,.010775,.039666,-.010775
,YESA,1.0

,0.0,0.0,0.0,0.0,0.0,0.0,0.0,0.0,
,0.0,0.0,0.0,0.0,0.0,0.0,0.0,0.0
$$$$$$$
PBEAM,4,1,1.473E-03,6.667E-07,4.923E-08,0.0,1.622E-07,0.000E+00,
-.03825,-.01018,-.03825,.01018,.03825,.01018,.03825,-.01018
,YESA,1.0

,0.0,0.0,0.0,0.0,0.0,0.0,0.0,0.0,,
,0.0,0.0,0.0,0.0,0.0,0.0,0.0,0.0
$$$$$$$
PBEAM,5,1,1.351E-03,5.651E-07,3.997E-08,0.0,1.324E-07,0.000E+00,
-.036833,-.0096050,-.036833,.0096050,.036833,.0096050,.036833,-.0096050
,YESA,1.0

,0.0,0.0,0.0,0.0,0.0,0.0,0.0,0.0,
,0.0,0.0,0.0,0.0,0.0,0.0,0.0,0.0
$$$$$$$
PBEAM,6,1,1.218E-03,4.710E-07,3.207E-08,0.0,1.062E-07,0.000E+00,
-.0354166,-.009045,-.0354166,.009045,.0354166,.009045,.0354166,-.009045
,YESA,1.0

,0.0,0.0,0.0,0.0,0.0,0.0,0.0,0.0,
,0.0,0.0,0.0,0.0,7.901E-04,1.752E-05,7.901E-04,1.752E-05
$$$$$$$
PBEAM,7,1,1.095E-03,3.889E-07,2.510E-08,0.0,8.412E-08,0.000E+00,
-.034000,-.008500,-.034000,.008500,.034000,.008500,.034000,-.008500
,YESA,1.0

,0.0,0.0,0.0,0.0,0.0,0.0,0.0,0.0,
,0.0,0.0,0.0,0.0,0.0,0.0,0.0,0.0
$$$$$$$
PBEAM,8,1,9.775E-04,3.171E-07,1.962E-08,0.0,6.554E-08,0.000E+00,
-.03258333,-.007960,-.03258333,.007960,.03258333,.007960,.03258333,-.007960
,YESA,1.0

,0.0,0.0,0.0,0.0,0.0,0.0,0.0,0.0,
,0.0,0.0,0.0,0.0,0.0,0.0,0.0,0.0
$$$$$$$
PBEAM,9,1,8.777E-04,2.594E-07,1.515E-08,0.0,5.114E-08,0.000E+00,
-.0311666,-.0074150,-.0311666,.0074150,.0311666,.0074150,.0311666,-.0074150
,YESA,1.0

,0.0,0.0,0.0,0.0,0.0,0.0,0.0,0.0,
,0.0,0.0,0.0,0.0,0.0,0.0,0.0,0.0
$$$$$$$
PBEAM,10,1,7.749E-04,2.081E-07,1.159E-08,0.0,3.899E-08,0.000E+00,
-.029750,-.0068850,-.029750,.0068850,.029750,.0068850,.029750,-.0068850
,YESA,1.0

,0.0,0.0,0.0,0.0,0.0,0.0,0.0,0.0,
,0.0,0.0,0.0,0.0,0.0,0.0,0.0,0.0
$$$$$$$
PBEAM,11,1,6.772E-04,1.653E-07,8.617E-09,0.0,2.949E-08,0.000E+00,
-.0283333,-.00638,-.0283333,.00638,.0283333,.00638,.0283333,-.00638
,YES,1.0

,0.0,0.0,0.0,0.0,0.0,0.0,0.0,0.0,
,0.0,0.0,0.0,0.0,0.0,0.0,0.0,0.0
$$$$$$$
PBEAM,12,1,5.983E-04,1.308E-07,6.598E-09,0.0,2.245E-08,0.000E+00,
-.0269166,-.0059150,-.0269166,.0059150,.0269166,.0059150,.0269166,-.0059150
,YESA,1.0

,0.0,0.0,0.0,0.0,0.0,0.0,0.0,0.0,
,0.0,0.0,0.0,0.0,0.0,0.0,0.0,0.0
$$$$$$$
PBEAM,13,1,5.277E-04,1.043E-07,5.047E-09,0.0,1.733E-08,0.000E+00,
-.025500,-.00550,-.025500,.00550,.025500,.00550,.025500,-.00550
,YESA,1.0

,0.0,0.0,0.0,0.0,0.0,0.0,0.0,0.0,
,0.0,0.0,0.0,0.0,0.0,0.0,0.0,0.0
$$$$$$$
PBEAM,14,1,4.624E-04,8.066E-08,3.845E-09,0.0,1.315E-08,0.000E+00,
-.02408333,-.005120,-.02408333,.005120,.02408333,.005120,.02408333,-.005120
,YESA,1.0

,0.0,0.0,0.0,0.0,0.0,0.0,0.0,0.0,
,0.0,0.0,0.0,0.0,0.0,0.0,0.0,0.0
$$$$$$$
PBEAM,15,1,4.042E-04,6.309E-08,2.907E-09,0.0,1.007E-08,0.000E+00,
-.022666,-.00476500,-.022666,.00476500,.022666,.00476500,.022666,-.00476500
,YESA,1.0

,0.0,0.0,0.0,0.0,0.0,0.0,0.0,0.0,
,0.0,0.0,0.0,0.0,0.0,0.0,0.0,0.0
$$$$$$$
PBEAM,16,1,3.505E-04,4.742E-08,2.162E-09,0.0,7.493E-09,0.000E+00,
-.021250,-.0044250,-.021250,.0044250,.021250,.0044250,.021250,-.0044250
,YESA,1.0

,0.0,0.0,0.0,0.0,0.0,0.0,0.0,0.0,
,0.0,0.0,0.0,0.0,0.0,0.0,0.0,0.0
$$$$$$$
PBEAM,17,1,2.987E-04,3.546E-08,1.608E-09,0.0,5.542E-09,0.000E+00,
-.019833,-.004100,-.019833,.004100,.019833,.004100,.019833,-.004100
,YESA,1.0

,0.0,0.0,0.0,0.0,0.0,0.0,0.0,0.0,
,0.0,0.0,0.0,0.0,0.0,0.0,0.0,0.0
$$$$$$$
PBEAM,18,1,2.566E-04,2.571E-08,1.151E-09,0.0,3.998E-09,0.000E+00,
-.01841666,-.0037850,-.01841666,.0037850,.01841666,.0037850,.01841666,-.0037850
,YESA,1.0

,0.0,0.0,0.0,0.0,0.0,0.0,0.0,0.0,
,0.0,0.0,0.0,0.0,0.0,0.0,0.0,0.0
$$$$$$$
PBEAM,19,1,2.122E-04,1.865E-08,8.292E-10,0.0,2.897E-09,0.000E+00,
-.01700,-.003480,-.01700,.003480,.01700,.003480,.01700,-.003480
,YESA,1.0

,0.0,0.0,0.0,0.0,0.0,0.0,0.0,0.0,
,0.0,0.0,0.0,0.0,0.0,0.0,0.0,0.0
$$$$$$$
PBEAM,20,1,1.803E-04,1.283E-08,5.750E-10,0.0,2.044E-09,0.000E+00,
-.01558333,-.003190,-.01558333,.003190,.01558333,.003190,.01558333,-.003190
,YESA,1.0

,0.0,0.0,0.0,0.0,0.0,0.0,0.0,0.0,
,0.0,0.0,0.0,0.0,0.0,0.0,0.0,0.0
$$$$$$$
PBEAM,21,1,1.455E-04,8.824E-09,3.981E-10,0.0,1.418E-09,0.000E+00,
-.01416666,-.002915,-.01416666,.002915,.01416666,.002915,.01416666,-.002915,
,YESA,1.0

,0.0,0.0,0.0,0.0,0.0,0.0,0.0,0.0,
,0.0,0.0,0.0,0.0,0.0,0.0,0.0,0.0
$$$$$$$
PBEAM,22,1,1.208E-04,5.658E-09,2.670E-10,0.0,9.490E-10,0.000E+00,
-.0127500,-.0026550,-.0127500,.0026550,.0127500,.0026550,.0127500,-.0026550
,YESA,1.0

,0.0,0.0,0.0,0.0,0.0,0.0,0.0,0.0,
,0.0,0.0,0.0,0.0,0.0,0.0,0.0,0.0
$$$$$$$
PBEAM,23,1,9.215E-05,3.633E-09,1.809E-10,0.0,6.287E-10,0.000E+00,
-.0113333,-.0024150,-.0113333,.0024150,.0113333,.0024150,.0113333,-.0024150
,YESA,1.0

,0.0,0.0,0.0,0.0,0.0,0.0,0.0,0.0,
,0.0,0.0,0.0,0.0,0.0,0.0,0.0,0.0
$$$$$$$
PBEAM,24,1,9.771E-05,3.640E-09,1.931E-10,0.0,7.109E-10,0.000E+00,
-.00991666,-.002150,-.00991666,.002150,.00991666,.002150,.00991666,-.002150
,YESA,1.0

,0.0,0.0,0.0,0.0,0.0,0.0,0.0,0.0,
,0.0,0.0,0.0,0.0,0.0,0.0,0.0,0.0
$$$$$$$
CONM2   10001   6       0       0.66000 -1.9e-03+0.0e+00+0.0e+00
        +2.5e-03+2.3e-05+3.8e-03+1.2e-06-5.2e-07+6.1e-03
CONM2   10002   18      0       0.58900 -3.3e-03+0.0e+00+0.0e+00
        +2.1e-03-8.5e-06+3.1e-03+2.8e-06-2.3e-06+5.0e-03
CONM2   10003   30      0       0.50900 -6.3e-03+0.0e+00+0.0e+00
        +1.7e-03-1.8e-06+2.4e-03+5.3e-06-7.1e-07+3.9e-03
CONM2   10004   42      0       0.48100 -4.9e-03+0.0e+00+0.0e+00
        +1.6e-03-1.7e-06+2.1e-03+5.1e-08-1.1e-06+3.6e-03
CONM2   10005   54      0       0.46000 -7.8e-03+0.0e+00+0.0e+00
        +1.6e-03-6.9e-06+1.7e-03-1.5e-06+5.7e-07+3.2e-03
CONM2   10006   66      0       0.43600 -7.7e-03+0.0e+00+0.0e+00
        +1.5e-03-8.5e-06+1.4e-03-4.2e-06-1.1e-06+2.9e-03
CONM2   10007   78      0       0.39100 -8.7e-03+0.0e+00+0.0e+00
        +1.3e-03-7.5e-06+1.1e-03-3.9e-06-1.2e-06+2.4e-03
CONM2   10008   90      0       0.36700 -1.0e-02+0.0e+00+0.0e+00
        +1.2e-03-8.4e-06+9.2e-04-4.2e-06-3.4e-06+2.1e-03
CONM2   10009   102     0       0.35000 -1.1e-02+0.0e+00+0.0e+00
        +1.7e-03-6.7e-06+7.6e-04-5.2e-06-1.5e-06+1.9e-03
CONM2   10010   114     0       0.63300 -4.5e-03+0.0e+00+0.0e+00
        +2.1e-03-3.4e-06+1.9e-03-1.3e-06-1.0e-06+3.9e-03
CONM2   10011   126     0       0.25300 -1.4e-02+0.0e+00+0.0e+00
        +8.5e-04-5.9e-06+4.2e-04-3.3e-06-1.0e-06+1.2e-03
CONM2   10012   138     0       0.21500 -1.2e-02+0.0e+00+0.0e+00
        +7.0e-04-4.3e-06+3.1e-04-2.5e-06+2.8e-07+1.0e-03
MAT1     1      7.2+10  2.707+10.33     .0001
CONM2   9001    500     0       2.11100 +2.9e-05+0.0e+00+0.0e+00
        +6.4e-03+4.5e-06+4.6e-03-8.3e-08+3.2e-07+1.1e-02
CONM2   9002    501     0       0.11400 -2.2e-05+0.0e+00+0.0e+00
        +9.3e-06+1.1e-07+9.0e-05+5.0e-09+9.1e-08+8.8e-05
CONM2   9003    1       0       0.11900 -6.3e-04+0.0e+00+0.0e+00
        +1.0e-05+1.2e-06+8.0e-05+1.1e-07+1.7e-07+7.9e-05
CONM2   9004    2       0       0.10800 +1.3e-03+0.0e+00+0.0e+00
        +8.7e-06-1.9e-07+6.8e-05-2.4e-07-1.4e-07+6.6e-05
CONM2   9005    3       0       0.11100 +3.1e-04+0.0e+00+0.0e+00
        +9.0e-06-1.5e-06+7.1e-05+1.7e-07-1.0e-07+7.0e-05
CONM2   9006    4       0       0.10900 -1.5e-04+0.0e+00+0.0e+00
        +8.8e-06-1.6e-06+6.7e-05+2.6e-07-3.9e-08+6.6e-05
CONM2   9007    5       0       0.10400 -6.7e-04+0.0e+00+0.0e+00
        +8.1e-06-7.6e-07+6.2e-05-1.4e-07-3.7e-08+6.1e-05
CONM2   9008    6       0       0.14200 +3.7e-03+0.0e+00+0.0e+00
        +9.6e-06+2.7e-07+2.2e-04-9.0e-08+3.2e-08+2.2e-04
CONM2   9009    8       0       0.11100 +3.1e-04+0.0e+00+0.0e+00
        +9.5e-06+1.1e-07+6.6e-05+1.4e-07-8.9e-08+6.7e-05
CONM2   9010    9       0       0.09400 -2.6e-04+0.0e+00+0.0e+00
        +7.1e-06+5.9e-08+5.9e-05+4.6e-08+1.5e-07+5.8e-05
CONM2   9011    10      0       0.10200 +7.7e-04+0.0e+00+0.0e+00
        +8.0e-06-5.3e-07+5.8e-05-3.2e-08+2.9e-07+5.8e-05
CONM2   9012    11      0       0.09900 -1.5e-04+0.0e+00+0.0e+00
        +7.5e-06-1.1e-06+5.6e-05+2.2e-07+1.1e-07+5.6e-05
CONM2   9013    12      0       0.09200 -8.6e-04+0.0e+00+0.0e+00
        +6.7e-06-3.2e-08+5.2e-05-7.4e-08-3.6e-08+5.1e-05
CONM2   9014    14      0       0.09600 +3.0e-04+0.0e+00+0.0e+00
        +7.1e-06+3.0e-07+5.3e-05-2.1e-07-1.1e-07+5.3e-05
CONM2   9015    15      0       0.09500 +7.1e-05+0.0e+00+0.0e+00
        +7.4e-06+8.0e-08+5.4e-05-2.5e-07-1.7e-07+5.4e-05
CONM2   9016    16      0       0.09000 +6.4e-04+0.0e+00+0.0e+00
        +6.7e-06-8.4e-07+4.6e-05+4.7e-07-5.7e-08+4.6e-05
CONM2   9017    17      0       0.08600 -1.0e-03+0.0e+00+0.0e+00
        +6.1e-06-3.1e-07+4.5e-05-2.8e-07-1.0e-09+4.5e-05
CONM2   9018    18      0       0.12200 +3.5e-03+0.0e+00+0.0e+00
        +7.3e-06+2.5e-07+1.8e-04+1.5e-07+2.2e-08+1.8e-04
CONM2   9019    20      0       0.08700 -1.8e-04+0.0e+00+0.0e+00
        +6.1e-06+2.6e-08+4.6e-05-6.6e-08-4.8e-08+4.6e-05
CONM2   9020    21      0       0.08600 +3.1e-04+0.0e+00+0.0e+00
        +5.8e-06-8.3e-08+4.4e-05+5.1e-08-1.0e-07+4.4e-05
$ ... 206 like lines cut
GRID     150            1.05850 2.42746 0.00000  
CBAR     1500    150     144     150     -1.      0.     0. 
PBAR     150     1      +3.0e-04+8.7e-08+8.7e-08+1.7e-07
CONM2   10124   150     0       1.71500 0.0658  0.0000  0.0000  
        +9.4e-04+2.0e-05+3.4e-02+1.0e-04+3.9e-07+3.4e-02
 
 
