$ wing_spar.bdf
$ 
$ Description:
$ - Bulk data file containing the bulk data for the wing spar when modelled as a collection of 1D beams. 
$
$ Notes
$ - The original version of this file can be found at: 
$   \\rdsfcifs.acrc.bris.ac.uk\AWI_HARW_Test_Data\Documents\Design\NastranModel\FinalWing\noPod
$ - The mass information can be verified by checking the CATIA model at the following location:
$
$ - The original NASTRAN file contained all of the bulk data in a single input file, meaning that
$   the results for the wing spar static tests could not be validated without commenting out the
$   mass information for the aerodynamic panels. To make validation easier this information has 
$   been moved to this file, and it can be included in the model via a Nastran INCLUDE statement.
$
$ Original Author: Dr Guillaume Francois
$ Notes by       : Dr Christopher Szczyglowski
$
$ MSC.Nastran input file created on February  22, 2018 at 16:49:01 by
$ Patran 2017.0.2
$ Linear Static Analysis, Database
$ Direct Text Input for Bulk Data
$
$ The original version of this file can be found at: 
$ \\rdsfcifs.acrc.bris.ac.uk\AWI_HARW_Test_Data\Documents\Design\NastranModel\FinalWing\noPod
$
$ Nodes associated with the spar-tombstone overlap/boundary condition
GRID     500            1.04223 -0.040000.00000  
GRID     501            1.04237 -0.020000.00000  
$ Nodes of the spar
$ - The origin is assumed to be at the wind tunnel wall.
GRID     1              1.0425   0.      0.
GRID     2              1.04263 .02      0.
GRID     3              1.04277 .04      0.
GRID     4              1.0429  .06      0.
GRID     5              1.04303 .08      0.
GRID     6              1.04317 .1       0.
GRID     8              1.0433  .12      0.
GRID     9              1.04343 .14      0.
GRID     10             1.04357 .16      0.
GRID     11             1.0437  .18      0.
GRID     12             1.04383 .2       0.
GRID     14             1.04397 .22      0.
GRID     15             1.0441  .24      0.
GRID     16             1.04423 .26      0.
GRID     17             1.04437 .28      0.
GRID     18             1.0445  .3       0.
GRID     20             1.04463 .32      0.
GRID     21             1.04477 .34      0.
GRID     22             1.0449  .36      0.
GRID     23             1.04503 .38      0.
$ ... 101 like lines cut
$ Elements associated with the spar-tombstone attachment
$ 	- N.B. The spar-tombstone beam property is equal to the first set of properties 
$    for the wing spar. However, there is a significant change in the geometry at 
$    the 'shoulder' of the wing spar as it tapers into the tombstone. It is highly 
$    likely that the beam properties will be non-constant at this point. 
$    We could look at adjusting this in the future...
CBEAM    500     1       500     501     -1.     0.     0. 
CBEAM    501     1       501     1       -1.     0.     0. 
$ Elements and Element Properties for region : cross_section_1
$ Pset: "cross_section_1" will be imported as: "pbeam.1"
CBEAM    1       1       1       2       -1.     0.     0.
CBEAM    2       1       2       3       -1.     0.     0.
CBEAM    3       1       3       4       -1.     0.     0.
CBEAM    4       1       4       5       -1.     0.     0.
CBEAM    5       1       5       6       -1.     0.     0.
$ Elements and Element Properties for region : cross_section_2
$ Pset: "cross_section_2" will be imported as: "pbeam.2"
CBEAM    6       2       6       8       -1.     0.     0.
CBEAM    7       2       8       9       -1.     0.     0.
CBEAM    8       2       9       10      -1.     0.     0.
CBEAM    9       2       10      11      -1.     0.     0.
CBEAM    10      2       11      12      -1.     0.     0.
$ Elements and Element Properties for region : cross_section_3
$ Pset: "cross_section_3" will be imported as: "pbeam.3"
CBEAM    11      3       12      14      -1.     0.     0.
CBEAM    12      3       14      15      -1.     0.     0.
CBEAM    13      3       15      16      -1.     0.     0.
CBEAM    14      3       16      17      -1.     0.     0.
CBEAM    15      3       17      18      -1.     0.     0.
$ Elements and Element Properties for region : cross_section_4
$ Pset: "cross_section_4" will be imported as: "pbeam.4"
CBEAM    16      4       18      20      -1.     0.     0.
CBEAM    17      4       20      21      -1.     0.     0.
CBEAM    18      4       21      22      -1.     0.     0.
CBEAM    19      4       22      23      -1.     0.     0.
CBEAM    20      4       23      24      -1.     0.     0.
$ Elements and Element Properties for region : cross_section_5
$ Pset: "cross_section_5" will be imported as: "pbeam.5"
CBEAM    21      5       24      26      -1.     0.     0.
CBEAM    22      5       26      27      -1.     0.     0.
CBEAM    23      5       27      28      -1.     0.     0.
CBEAM    24      5       28      29      -1.     0.     0.
CBEAM    25      5       29      30      -1.     0.     0.
$ Elements and Element Properties for region : cross_section_6
$ Pset: "cross_section_6" will be imported as: "pbeam.6"
CBEAM    26      6       30      32      -1.     0.     0.
CBEAM    27      6       32      33      -1.     0.     0.
CBEAM    28      6       33      34      -1.     0.     0.
CBEAM    29      6       34      35      -1.     0.     0.
CBEAM    30      6       35      36      -1.     0.     0.
$ Elements and Element Properties for region : cross_section_7
$ Pset: "cross_section_7" will be imported as: "pbeam.7"
CBEAM    31      7       36      38      -1.     0.     0.
CBEAM    32      7       38      39      -1.     0.     0.
CBEAM    33      7       39      40      -1.     0.     0.
CBEAM    34      7       40      41      -1.     0.     0.
CBEAM    35      7       41      42      -1.     0.     0.
$ Elements and Element Properties for region : cross_section_8
$ Pset: "cross_section_8" will be imported as: "pbeam.8"
CBEAM    36      8       42      44      -1.     0.     0.
CBEAM    37      8       44      45      -1.     0.     0.
CBEAM    38      8       45      46      -1.     0.     0.
CBEAM    39      8       46      47      -1.     0.     0.
CBEAM    40      8       47      48      -1.     0.     0.
$ Elements and Element Properties for region : cross_section_9
$ Pset: "cross_section_9" will be imported as: "pbeam.9"
CBEAM    41      9       48      50      -1.     0.     0.
CBEAM    42      9       50      51      -1.     0.     0.
CBEAM    43      9       51      52      -1.     0.     0.
CBEAM    44      9       52      53      -1.     0.     0.
CBEAM    45      9       53      54      -1.     0.     0.
$ Elements and Element Properties for region : cross_section_10
$ Pset: "cross_section_10" will be imported as: "pbeam.10"
CBEAM    46      10      54      56      -1.     0.     0.
CBEAM    47      10      56      57      -1.     0.     0.
CBEAM    48      10      57      58      -1.     0.     0.
CBEAM    49      10      58      59      -1.     0.     0.
CBEAM    50      10      59      60      -1.     0.     0.
$ Elements and Element Properties for region : cross_section_11
$ Pset: "cross_section_11" will be imported as: "pbeam.11"
CBEAM    51      11      60      62      -1.     0.     0.
CBEAM    52      11      62      63      -1.     0.     0.
CBEAM    53      11      63      64      -1.     0.     0.
CBEAM    54      11      64      65      -1.     0.     0.
CBEAM    55      11      65      66      -1.     0.     0.
$ Elements and Element Properties for region : cross_section_12
$ Pset: "cross_section_12" will be imported as: "pbeam.12"
CBEAM    56      12      66      68      -1.     0.     0.
CBEAM    57      12      68      69      -1.     0.     0.
CBEAM    58      12      69      70      -1.     0.     0.
CBEAM    59      12      70      71      -1.     0.     0.
CBEAM    60      12      71      72      -1.     0.     0.
$ Elements and Element Properties for region : cross_section_13
$ Pset: "cross_section_13" will be imported as: "pbeam.13"
CBEAM    61      13      72      74      -1.     0.     0.
CBEAM    62      13      74      75      -1.     0.     0.
CBEAM    63      13      75      76      -1.     0.     0.
CBEAM    64      13      76      77      -1.     0.     0.
CBEAM    65      13      77      78      -1.     0.     0.
$ Elements and Element Properties for region : cross_section_14
$ Pset: "cross_section_14" will be imported as: "pbeam.14"
CBEAM    66      14      78      80      -1.     0.     0.
CBEAM    67      14      80      81      -1.     0.     0.
CBEAM    68      14      81      82      -1.     0.     0.
CBEAM    69      14      82      83      -1.     0.     0.
CBEAM    70      14      83      84      -1.     0.     0.
$ Elements and Element Properties for region : cross_section_15
$ Pset: "cross_section_15" will be imported as: "pbeam.15"
CBEAM    71      15      84      86      -1.     0.     0.
CBEAM    72      15      86      87      -1.     0.     0.
CBEAM    73      15      87      88      -1.     0.     0.
CBEAM    74      15      88      89      -1.     0.     0.
CBEAM    75      15      89      90      -1.     0.     0.
$ Elements and Element Properties for region : cross_section_16
$ Pset: "cross_section_16" will be imported as: "pbeam.16"
CBEAM    76      16      90      92      -1.     0.     0.
CBEAM    77      16      92      93      -1.     0.     0.
CBEAM    78      16      93      94      -1.     0.     0.
CBEAM    79      16      94      95      -1.     0.     0.
CBEAM    80      16      95      96      -1.     0.     0.
$ Elements and Element Properties for region : cross_section_17
$ Pset: "cross_section_17" will be imported as: "pbeam.17"
CBEAM    81      17      96      98      -1.     0.     0.
CBEAM    82      17      98      99      -1.     0.     0.
CBEAM    83      17      99      100     -1.     0.     0.
CBEAM    84      17      100     101     -1.     0.     0.
CBEAM    85      17      101     102     -1.     0.     0.
$ Elements and Element Properties for region : cross_section_18
$ Pset: "cross_section_18" will be imported as: "pbeam.18"
CBEAM    86      18      102     104     -1.     0.     0.
CBEAM    87      18      104     105     -1.     0.     0.
CBEAM    88      18      105     106     -1.     0.     0.
CBEAM    89      18      106     107     -1.     0.     0.
CBEAM    90      18      107     108     -1.     0.     0.
$ Elements and Element Properties for region : cross_section_19
$ Pset: "cross_section_19" will be imported as: "pbeam.19"
CBEAM    91      19      108     110     -1.     0.     0.
CBEAM    92      19      110     111     -1.     0.     0.
CBEAM    93      19      111     112     -1.     0.     0.
CBEAM    94      19      112     113     -1.     0.     0.
CBEAM    95      19      113     114     -1.     0.     0.
$ Elements and Element Properties for region : cross_section_20
$ Pset: "cross_section_20" will be imported as: "pbeam.20"
CBEAM    96      20      114     116     -1.     0.     0.
CBEAM    97      20      116     117     -1.     0.     0.
CBEAM    98      20      117     118     -1.     0.     0.
CBEAM    99      20      118     119     -1.     0.     0.
CBEAM    100     20      119     120     -1.     0.     0.
$ Elements and Element Properties for region : cross_section_21
$ Pset: "cross_section_21" will be imported as: "pbeam.21"
CBEAM    101     21      120     122     -1.     0.     0.
CBEAM    102     21      122     123     -1.     0.     0.
CBEAM    103     21      123     124     -1.     0.     0.
CBEAM    104     21      124     125     -1.     0.     0.
CBEAM    105     21      125     126     -1.     0.     0.
$ Elements and Element Properties for region : cross_section_22
$ Pset: "cross_section_22" will be imported as: "pbeam.22"
CBEAM    106     22      126     128     -1.     0.     0.
CBEAM    107     22      128     129     -1.     0.     0.
CBEAM    108     22      129     130     -1.     0.     0.
CBEAM    109     22      130     131     -1.     0.     0.
CBEAM    110     22      131     132     -1.     0.     0.
$ Elements and Element Properties for region : cross_section_23
$ Pset: "cross_section_23" will be imported as: "pbeam.23"
CBEAM    111     23      132     134     -1.     0.     0.
CBEAM    112     23      134     135     -1.     0.     0.
CBEAM    113     23      135     136     -1.     0.     0.
CBEAM    114     23      136     137     -1.     0.     0.
CBEAM    115     23      137     138     -1.     0.     0.
$ Elements and Element Properties for region : cross_section_24
$ Pset: "cross_section_24" will be imported as: "pbeam.24"
CBEAM    116     24      138     140     -1.     0.     0.
CBEAM    117     24      140     141     -1.     0.     0.
CBEAM    118     24      141     142     -1.     0.     0.
CBEAM    119     24      142     143     -1.     0.     0.
CBEAM    120     24      143     144     -1.     0.     0.
$ Material definition  (Aluminium)
MAT1     1      7.2+10  2.707+10.33
$ Masses associated with the wing spar
CONM2*  9001            500             0               2.111000E+00    
*       2.937600E-05    -8.572646E-02   -2.437000E-06   
*       6.434578E-03    4.499000E-06    4.575420E-03    -8.300000E-08   
*       3.220000E-07    1.077247E-02    
CONM2*  9002            501             0               1.140000E-01    
*       -2.212000E-05   7.896020E-04    -2.939200E-05   
*       9.259000E-06    1.100000E-07    9.033100E-05    5.000000E-09    
*       9.100000E-08    8.784100E-05    
CONM2*  9003            1               0               1.190000E-01    
*       -6.274930E-04   6.716200E-04    1.038900E-05    
*       1.033300E-05    1.155000E-06    8.014400E-05    1.070000E-07    
*       1.670000E-07    7.907100E-05    
CONM2*  9004            2               0               1.080000E-01    
*       1.273224E-03    5.169700E-04    1.878300E-04    
*       8.748000E-06    -1.910000E-07   6.769300E-05    -2.420000E-07   
*       -1.370000E-07   6.622800E-05    
CONM2*  9005            3               0               1.110000E-01    
*       3.069550E-04    3.410220E-04    -1.619960E-04   
*       9.024000E-06    -1.524000E-06   7.097700E-05    1.710000E-07    
*       -1.040000E-07   6.977400E-05    
CONM2*  9006            4               0               1.090000E-01    
*       -1.495420E-04   4.583320E-04    9.472900E-05    
*       8.792000E-06    -1.587000E-06   6.708800E-05    2.570000E-07    
*       -3.900000E-08   6.605800E-05    
CONM2*  9007            5               0               1.040000E-01    
*       -6.705260E-04   3.309250E-04    -8.671500E-05   
*       8.065000E-06    -7.580000E-07   6.205500E-05    -1.370000E-07   
*       -3.700000E-08   6.099800E-05    
CONM2*  9008            6               0               1.420000E-01    
*       3.651619E-03    3.572100E-05    9.748000E-06    
*       9.621000E-06    2.710000E-07    2.244340E-04    -9.000000E-08   
*       3.200000E-08    2.246410E-04    
CONM2*  9009            8               0               1.110000E-01    
*       3.064930E-04    7.855000E-04    7.719600E-05    
*       9.472000E-06    1.070000E-07    6.646800E-05    1.410000E-07    
*       -8.900000E-08   6.657600E-05    
CONM2*  9010            9               0               9.400000E-02    
*       -2.569210E-04   7.308650E-04    -2.900160E-04   
*       7.068000E-06    5.900000E-08    5.858900E-05    4.600000E-08    
*       1.490000E-07    5.772100E-05    
CONM2*  9011            10              0               1.020000E-01    
*       7.668270E-04    4.532010E-04    1.048380E-04    
*       8.025000E-06    -5.320000E-07   5.804000E-05    -3.200000E-08   
*       2.910000E-07    5.775300E-05    
CONM2*  9012            11              0               9.900000E-02    
*       -1.492760E-04   9.361270E-04    7.142500E-05    
*       7.548000E-06    -1.086000E-06   5.595800E-05    2.240000E-07    
*       1.070000E-07    5.594000E-05    
CONM2*  9013            12              0               9.200000E-02    
*       -8.603120E-04   6.589360E-04    4.338700E-05    
*       6.685000E-06    -3.200000E-08   5.179400E-05    -7.400000E-08   
*       -3.600000E-08   5.118900E-05    
CONM2*  9014            14              0               9.600000E-02    
*       2.998510E-04    6.351170E-04    7.506600E-05    
*       7.082000E-06    3.000000E-07    5.254700E-05    -2.100000E-07   
*       -1.130000E-07   5.261700E-05    
CONM2*  9015            15              0               9.500000E-02    
*       7.058100E-05    1.246170E-03    -3.293400E-05   
*       7.439000E-06    8.000000E-08    5.414400E-05    -2.490000E-07   
*       -1.660000E-07   5.439600E-05    
CONM2*  9016            16              0               9.000000E-02    
*       6.407870E-04    1.296204E-03    -5.116200E-05   
*       6.673000E-06    -8.380000E-07   4.564700E-05    4.670000E-07    
*       -5.700000E-08   4.582600E-05    
CONM2*  9017            17              0               8.600000E-02    
*       -1.038396E-03   9.983220E-04    -5.705800E-05   
*       6.052000E-06    -3.060000E-07   4.471300E-05    -2.830000E-07   
*       -1.000000E-09   4.481000E-05    
CONM2*  9018            18              0               1.220000E-01    
*       3.473328E-03    1.760560E-04    2.927700E-05    
*       7.345000E-06    2.500000E-07    1.833990E-04    1.450000E-07    
*       2.200000E-08    1.843850E-04    
CONM2*  9019            20              0               8.700000E-02    
*       -1.800030E-04   2.568050E-04    4.388400E-05    
*       6.059000E-06    2.600000E-08    4.617000E-05    -6.600000E-08   
*       -4.800000E-08   4.627800E-05    
CONM2*  9020            21              0               8.600000E-02    
*       3.099030E-04    6.478270E-04    2.154000E-05    
*       5.824000E-06    -8.300000E-08   4.360900E-05    5.100000E-08    
*       -1.030000E-07   4.388000E-05    
CONM2*  9021            22              0               8.400000E-02    
*       -6.899600E-04   1.040710E-03    -6.497900E-05   
*       5.625000E-06    2.090000E-07    4.165000E-05    -2.200000E-08   
*       -6.600000E-08   4.196700E-05    
CONM2*  9022            23              0               7.900000E-02    
*       5.728450E-04    1.007996E-03    -1.232000E-06   
*       5.099000E-06    2.740000E-07    3.793200E-05    2.000000E-09    
*       -1.100000E-08   3.799600E-05    
CONM2*  9023            24              0               7.800000E-02    
*       2.707170E-04    6.808780E-04    8.890000E-06    
*       4.973000E-06    -3.640000E-07   3.770800E-05    2.200000E-08    
*       -1.600000E-08   3.787800E-05    
CONM2*  9024            26              0               7.800000E-02    
*       -4.977200E-05   5.448610E-04    -9.452000E-06   
*       4.970000E-06    -5.650000E-07   3.700000E-05    -2.300000E-08   
*       -1.700000E-08   3.730400E-05    
CONM2*  9025            27              0               7.600000E-02    
*       6.249100E-05    5.986020E-04    -3.374000E-06   
*       4.856000E-06    -5.940000E-07   3.588300E-05    -6.000000E-09   
*       -6.000000E-09   3.626100E-05    
CONM2*  9026            28              0               7.700000E-02    
*       -8.078910E-04   9.919130E-04    5.181000E-05    
*       5.038000E-06    -6.500000E-08   3.508600E-05    -1.400000E-07   
*       -4.800000E-08   3.570400E-05    
CONM2*  9027            29              0               7.000000E-02    
*       1.814950E-04    8.710020E-04    -4.348700E-05   
*       4.205000E-06    4.530000E-07    3.180100E-05    1.350000E-07    
*       -4.800000E-08   3.208300E-05    
CONM2*  9028            30              0               1.080000E-01    
*       2.580970E-03    2.835390E-04    -1.252200E-05   
*       5.804000E-06    4.440000E-07    1.511190E-04    -1.300000E-08   
*       -9.000000E-09   1.526280E-04    
CONM2*  9029            32              0               7.200000E-02    
*       3.995070E-04    5.503540E-04    -2.454000E-06   
*       4.483000E-06    8.700000E-08    3.311500E-05    4.600000E-08    
*       4.000000E-09    3.377200E-05    
CONM2*  9030            33              0               7.000000E-02    
*       -6.485560E-04   9.925540E-04    8.643000E-06    
*       4.423000E-06    2.880000E-07    3.078400E-05    -3.390000E-07   
*       9.000000E-09    3.158600E-05    
CONM2*  9031            34              0               6.700000E-02    
*       -2.791940E-04   1.018555E-03    -3.816000E-06   
*       4.009000E-06    8.550000E-07    2.712000E-05    2.920000E-07    
*       -6.000000E-09   2.776900E-05    
CONM2*  9032            35              0               6.600000E-02    
*       2.499140E-04    1.006653E-03    2.404900E-05    
*       3.932000E-06    8.760000E-07    2.756100E-05    1.700000E-08    
*       -1.500000E-08   2.823000E-05    
CONM2*  9033            36              0               6.500000E-02    
*       8.880990E-04    1.061218E-03    4.146000E-06    
*       3.792000E-06    7.800000E-08    2.646100E-05    -6.600000E-08   
*       -3.600000E-08   2.712600E-05    
CONM2*  9034            38              0               6.600000E-02    
*       2.302300E-04    1.506409E-03    -6.537500E-05   
*       4.003000E-06    -6.620000E-07   2.716500E-05    -4.000000E-08   
*       1.200000E-08    2.810800E-05    
CONM2*  9035            39              0               6.100000E-02    
*       -3.162640E-04   1.647278E-03    2.081400E-05    
*       3.441000E-06    -5.700000E-07   2.318200E-05    8.400000E-08    
*       3.200000E-08    2.385400E-05    
CONM2*  9036            40              0               5.900000E-02    
*       -5.902370E-04   1.227722E-03    6.287600E-05    
*       3.295000E-06    -6.200000E-08   2.226200E-05    9.500000E-08    
*       -1.800000E-08   2.286800E-05    
CONM2*  9037            41              0               5.800000E-02    
*       4.124320E-04    6.479490E-04    -4.632600E-05   
*       3.122000E-06    2.100000E-08    2.227200E-05    -8.800000E-08   
*       -1.800000E-08   2.289000E-05    
CONM2*  9038            42              0               9.300000E-02    
*       1.622853E-03    1.752930E-04    -1.332000E-06   
*       4.550000E-06    -2.170000E-07   1.265590E-04    9.000000E-09    
*       4.000000E-09    1.282960E-04    
CONM2*  9039            44              0               5.900000E-02    
*       7.524500E-05    6.510010E-04    -2.114400E-05   
*       3.497000E-06    -3.490000E-07   2.211700E-05    -4.000000E-09   
*       1.900000E-08    2.310800E-05    
CONM2*  9040            45              0               5.500000E-02    
*       -1.731890E-04   9.765630E-04    -4.153100E-05   
*       2.996000E-06    -2.560000E-07   2.053800E-05    9.100000E-08    
*       5.800000E-08    2.143500E-05    
CONM2*  9041            46              0               5.600000E-02    
*       -4.436050E-04   1.268982E-03    7.378500E-05    
*       3.149000E-06    1.000000E-07    1.935700E-05    -1.030000E-07   
*       3.100000E-08    2.035900E-05    
CONM2*  9042            47              0               5.400000E-02    
*       -2.798960E-04   1.921997E-03    1.937000E-06    
*       3.032000E-06    4.580000E-07    1.922200E-05    1.400000E-08    
*       -6.000000E-09   2.022000E-05    
CONM2*  9043            48              0               5.200000E-02    
*       5.984300E-05    2.179504E-03    -4.237000E-06   
*       2.744000E-06    5.390000E-07    1.752000E-05    -7.000000E-09   
*       -4.000000E-09   1.837400E-05    
CONM2*  9044            50              0               5.000000E-02    
*       -3.651500E-05   2.163574E-03    -6.612000E-06   
*       2.673000E-06    5.390000E-07    1.695500E-05    -8.000000E-09   
*       1.000000E-09    1.783900E-05    
CONM2*  9045            51              0               4.700000E-02    
*       5.323510E-04    1.695313E-03    8.958000E-06    
*       2.351000E-06    2.330000E-07    1.534200E-05    1.600000E-08    
*       -2.000000E-09   1.601000E-05    
CONM2*  9046            52              0               4.700000E-02    
*       2.663080E-04    1.154175E-03    1.769000E-06    
*       2.360000E-06    -1.210000E-07   1.494500E-05    -5.000000E-09   
*       -5.000000E-09   1.573100E-05    
CONM2*  9047            53              0               4.500000E-02    
*       -4.123530E-04   5.913700E-04    -9.609000E-06   
*       2.173000E-06    -9.100000E-08   1.439600E-05    -7.000000E-09   
*       -3.000000E-09   1.508000E-05    
CONM2*  9048            54              0               6.700000E-02    
*       2.894030E-04    1.297610E-04    1.818000E-06    
*       2.808000E-06    1.020000E-07    6.925700E-05    1.300000E-08    
*       0.000000E+00    7.049000E-05    
CONM2*  9049            56              0               4.400000E-02    
*       -2.413420E-04   8.496100E-05    -3.411700E-05   
*       2.176000E-06    2.050000E-07    1.391700E-05    -2.900000E-08   
*       1.500000E-08    1.470900E-05    
CONM2*  9050            57              0               4.500000E-02    
*       1.036487E-03    2.755130E-04    2.696000E-05    
*       2.276000E-06    -2.270000E-07   1.344300E-05    2.000000E-08    
*       1.700000E-08    1.441500E-05    
CONM2*  9051            58              0               4.200000E-02    
*       -5.416060E-04   4.309690E-04    5.830000E-07    
*       2.076000E-06    -4.070000E-07   1.223700E-05    -7.000000E-09   
*       5.000000E-09    1.310400E-05    
CONM2*  9052            59              0               4.300000E-02    
*       -4.808340E-04   7.694700E-04    5.737000E-06    
*       2.144000E-06    -3.000000E-08   1.228800E-05    4.000000E-09    
*       2.000000E-09    1.323800E-05    
CONM2*  9053            60              0               4.200000E-02    
*       -1.267310E-04   1.551697E-03    -3.931500E-05   
*       2.165000E-06    2.390000E-07    1.176800E-05    -5.200000E-08   
*       2.100000E-08    1.280000E-05    
CONM2*  9054            62              0               3.900000E-02    
*       2.501690E-04    1.743652E-03    3.598100E-05    
*       1.820000E-06    9.600000E-08    1.042900E-05    5.600000E-08    
*       1.600000E-08    1.123600E-05    
CONM2*  9055            63              0               3.900000E-02    
*       -3.003560E-04   1.809570E-03    1.614300E-05    
*       1.906000E-06    1.320000E-07    1.061400E-05    2.000000E-09    
*       0.000000E+00    1.152400E-05    
CONM2*  9056            64              0               3.500000E-02    
*       1.497980E-04    1.365356E-03    6.519600E-05    
*       1.523000E-06    1.630000E-07    8.936000E-06    -1.500000E-08   
*       -2.800000E-08   9.573000E-06    
CONM2*  9057            65              0               3.500000E-02    
*       2.319670E-04    1.481930E-04    -8.468100E-05   
*       1.493000E-06    1.900000E-08    9.320000E-06    1.600000E-08    
*       -2.100000E-08   9.968000E-06    
CONM2*  9058            66              0               5.700000E-02    
*       -8.699480E-04   -2.429200E-04   1.071200E-05    
*       2.140000E-06    -4.800000E-08   5.658000E-05    -1.000000E-09   
*       1.000000E-09    5.775900E-05    
CONM2*  9059            68              0               3.600000E-02    
*       -1.066000E-04   -6.189000E-05   -8.971000E-06   
*       1.709000E-06    -3.000000E-08   9.060000E-06    9.000000E-09    
*       -3.000000E-09   9.952000E-06    
CONM2*  9060            69              0               3.500000E-02    
*       8.101700E-05    7.752690E-04    2.376000E-06    
*       1.728000E-06    -7.200000E-08   8.733000E-06    -8.000000E-09   
*       -0.000000E+00   9.704000E-06    
CONM2*  9061            70              0               3.500000E-02    
*       -4.392760E-04   1.674438E-03    -2.765000E-06   
*       1.688000E-06    6.900000E-08    7.906000E-06    1.000000E-09    
*       -0.000000E+00   8.876000E-06    
CONM2*  9062            71              0               3.300000E-02    
*       -1.331100E-05   2.348389E-03    3.065000E-06    
*       1.532000E-06    1.930000E-07    7.605000E-06    -6.000000E-09   
*       0.000000E+00    8.458000E-06    
CONM2*  9063            72              0               3.000000E-02    
*       3.553590E-04    2.148315E-03    -1.981300E-05   
*       1.290000E-06    6.300000E-08    6.758000E-06    1.400000E-08    
*       5.000000E-09    7.436000E-06    
CONM2*  9064            74              0               3.100000E-02    
*       2.708930E-04    2.056152E-03    2.338900E-05    
*       1.463000E-06    -1.450000E-07   7.001000E-06    -1.900000E-08   
*       4.000000E-09    7.856000E-06    
CONM2*  9065            75              0               3.000000E-02    
*       2.254200E-05    2.260498E-03    -9.507000E-06   
*       1.318000E-06    -2.450000E-07   6.394000E-06    1.000000E-08    
*       -1.000000E-09   7.148000E-06    
CONM2*  9066            76              0               2.700000E-02    
*       -3.615750E-04   1.336914E-03    -3.900400E-05   
*       1.042000E-06    -1.580000E-07   5.799000E-06    1.000000E-08    
*       1.200000E-08    6.326000E-06    
CONM2*  9067            77              0               2.700000E-02    
*       -2.013720E-04   1.367190E-04    3.541300E-05    
*       1.133000E-06    -3.700000E-08   5.435000E-06    -1.200000E-08   
*       1.100000E-08    6.072000E-06    
CONM2*  9068            78              0               4.800000E-02    
*       -1.867352E-03   -9.765600E-05   3.260000E-06    
*       1.678000E-06    2.100000E-08    4.540300E-05    -2.000000E-09   
*       1.000000E-09    4.647600E-05    
CONM2*  9069            80              0               2.900000E-02    
*       3.499640E-04    5.328370E-04    -7.615000E-06   
*       1.363000E-06    -9.800000E-08   5.791000E-06    -5.000000E-09   
*       2.000000E-09    6.665000E-06    
CONM2*  9070            81              0               2.600000E-02    
*       -4.763090E-04   1.037842E-03    5.094000E-06    
*       1.046000E-06    -7.500000E-08   4.847000E-06    3.000000E-09    
*       2.000000E-09    5.482000E-06    
CONM2*  9071            82              0               2.600000E-02    
*       2.223320E-04    1.091675E-03    5.480000E-07    
*       1.168000E-06    -5.100000E-08   5.042000E-06    2.000000E-09    
*       1.000000E-09    5.790000E-06    
CONM2*  9072            83              0               2.500000E-02    
*       -4.303800E-05   1.327393E-03    7.351000E-06    
*       1.043000E-06    -1.000000E-07   4.510000E-06    -2.000000E-09   
*       -1.000000E-09   5.167000E-06    
CONM2*  9073            84              0               2.400000E-02    
*       6.310600E-05    1.186768E-03    -1.215500E-05   
*       9.910000E-07    -1.230000E-07   4.268000E-06    4.000000E-09    
*       0.000000E+00    4.894000E-06    
CONM2*  9074            86              0               2.300000E-02    
*       -1.806650E-04   9.278560E-04    5.500000E-06    
*       9.430000E-07    -1.040000E-07   3.959000E-06    -2.000000E-09   
*       1.000000E-09    4.557000E-06    
CONM2*  9075            87              0               2.400000E-02    
*       -4.517900E-04   1.072510E-03    6.651000E-06    
*       1.019000E-06    2.500000E-08    4.094000E-06    -0.000000E+00   
*       -2.000000E-09   4.776000E-06    
CONM2*  9076            88              0               2.200000E-02    
*       7.162740E-04    1.078125E-03    -9.596000E-06   
*       8.740000E-07    -5.700000E-08   3.536000E-06    -4.000000E-09   
*       -1.000000E-09   4.107000E-06    
CONM2*  9077            89              0               2.100000E-02    
*       -4.949300E-04   3.927000E-04    4.059000E-06    
*       7.980000E-07    -1.010000E-07   3.281000E-06    5.000000E-09    
*       1.000000E-09    3.799000E-06    
CONM2*  9078            90              0               4.000000E-02    
*       -3.444247E-03   -5.358900E-05   3.521000E-06    
*       1.319000E-06    3.000000E-09    3.550500E-05    -2.000000E-09   
*       -2.000000E-09   3.643300E-05    
CONM2*  9079            92              0               2.300000E-02    
*       6.770000E-06    1.025146E-03    4.223000E-06    
*       1.129000E-06    -5.000000E-09   3.462000E-06    -0.000000E+00   
*       -4.000000E-09   4.306000E-06    
CONM2*  9080            93              0               2.000000E-02    
*       2.936810E-04    2.306030E-03    -1.217000E-06   
*       8.380000E-07    -7.400000E-08   3.120000E-06    -3.000000E-09   
*       -5.000000E-09   3.711000E-06    
CONM2*  9081            94              0               1.900000E-02    
*       -2.754500E-05   1.930908E-03    -2.473400E-05   
*       7.450000E-07    -1.390000E-07   2.702000E-06    3.400000E-08    
*       2.000000E-09    3.222000E-06    
CONM2*  9082            95              0               1.800000E-02    
*       -2.937270E-04   9.121090E-04    9.137000E-06    
*       6.650000E-07    -7.700000E-08   2.329000E-06    -2.900000E-08   
*       2.000000E-09    2.789000E-06    
CONM2*  9083            96              0               1.900000E-02    
*       4.772430E-04    9.072270E-04    1.987100E-05    
*       8.180000E-07    -1.570000E-07   2.654000E-06    -3.000000E-09   
*       -2.000000E-09   3.264000E-06    
CONM2*  9084            98              0               1.700000E-02    
*       -8.619130E-04   1.113647E-03    1.195400E-05    
*       6.930000E-07    -8.800000E-08   2.230000E-06    -2.000000E-09   
*       -9.000000E-09   2.733000E-06    
CONM2*  9085            99              0               1.700000E-02    
*       3.330200E-04    1.101440E-03    -7.132000E-06   
*       7.030000E-07    -1.600000E-08   2.235000E-06    -4.000000E-09   
*       -1.000000E-08   2.757000E-06    
CONM2*  9086            100             0               1.700000E-02    
*       -4.287170E-04   1.225708E-03    -7.897400E-05   
*       6.900000E-07    -2.000000E-09   2.128000E-06    -3.000000E-09   
*       6.000000E-09    2.644000E-06    
CONM2*  9087            101             0               1.500000E-02    
*       1.450450E-04    5.783690E-04    6.338200E-05    
*       5.210000E-07    1.800000E-08    1.785000E-06    9.000000E-09    
*       7.000000E-09    2.157000E-06    
CONM2*  9088            102             0               2.500000E-02    
*       -3.287346E-03   -9.729000E-05   -6.130000E-06   
*       7.340000E-07    -2.000000E-09   1.585000E-05    3.000000E-09    
*       1.000000E-09    1.640800E-05    
CONM2*  9089            104             0               1.700000E-02    
*       2.709580E-04    8.474120E-04    -6.556000E-06   
*       7.790000E-07    -8.900000E-08   1.996000E-06    -3.000000E-09   
*       4.000000E-09    2.625000E-06    
CONM2*  9090            105             0               1.400000E-02    
*       -5.874180E-04   1.314453E-03    1.233800E-05    
*       5.220000E-07    -3.500000E-08   1.491000E-06    1.000000E-09    
*       2.000000E-09    1.886000E-06    
CONM2*  9091            106             0               1.400000E-02    
*       -1.505540E-04   7.761230E-04    -5.870000E-06   
*       5.270000E-07    4.600000E-08    1.503000E-06    1.000000E-09    
*       2.000000E-09    1.910000E-06    
CONM2*  9092            107             0               1.500000E-02    
*       -1.077830E-04   1.369507E-03    -1.113610E-04   
*       6.790000E-07    7.600000E-08    1.437000E-06    -9.000000E-09   
*       2.200000E-08    1.993000E-06    
CONM2*  9093            108             0               1.300000E-02    
*       1.313020E-04    1.420654E-03    2.295920E-04    
*       4.960000E-07    5.400000E-08    1.306000E-06    1.100000E-08    
*       3.000000E-09    1.697000E-06    
CONM2*  9094            110             0               1.200000E-02    
*       4.560300E-05    7.016600E-04    -9.111400E-05   
*       4.570000E-07    2.600000E-08    1.230000E-06    -2.000000E-09   
*       -9.000000E-09   1.594000E-06    
CONM2*  9095            111             0               1.300000E-02    
*       -1.043390E-04   8.481450E-04    5.967100E-05    
*       5.290000E-07    3.000000E-08    1.206000E-06    8.000000E-09    
*       -8.000000E-09   1.638000E-06    
CONM2*  9096            112             0               1.100000E-02    
*       6.413350E-04    7.774660E-04    -1.339760E-04   
*       4.160000E-07    -5.700000E-08   1.039000E-06    -5.000000E-09   
*       2.000000E-09    1.371000E-06    
CONM2*  9097            113             0               1.100000E-02    
*       -5.499330E-04   -3.625500E-05   6.727000E-05    
*       4.090000E-07    -6.000000E-08   9.470000E-07    -4.000000E-09   
*       6.000000E-09    1.277000E-06    
CONM2*  9098            114             0               2.100000E-02    
*       -5.302600E-03   -1.058350E-04   -4.910000E-07   
*       5.550000E-07    -4.000000E-09   1.237300E-05    -1.000000E-09   
*       0.000000E+00    1.282600E-05    
CONM2*  9099            116             0               1.100000E-02    
*       1.315260E-04    -2.402340E-04   3.517000E-06    
*       3.880000E-07    -3.900000E-08   8.790000E-07    -0.000000E+00   
*       -0.000000E+00   1.197000E-06    
CONM2*  9100            117             0               1.100000E-02    
*       2.765500E-05    4.051510E-04    -7.305000E-06   
*       4.730000E-07    -7.200000E-08   8.450000E-07    2.000000E-09    
*       1.000000E-09    1.248000E-06    
CONM2*  9101            118             0               1.100000E-02    
*       -9.153870E-04   1.980225E-03    -1.319200E-05   
*       4.870000E-07    2.400000E-08    8.540000E-07    -1.000000E-09   
*       3.000000E-09    1.275000E-06    
CONM2*  9102            119             0               9.000000E-03    
*       8.317710E-04    1.969238E-03    -1.928000E-06   
*       3.010000E-07    2.300000E-08    5.890000E-07    1.000000E-09    
*       4.000000E-09    8.370000E-07    
CONM2*  9103            120             0               9.000000E-03    
*       -3.778400E-05   1.254395E-03    -2.609000E-06   
*       3.420000E-07    -4.400000E-08   6.420000E-07    -0.000000E+00   
*       5.000000E-09    9.320000E-07    
CONM2*  9104            122             0               9.000000E-03    
*       -4.054000E-05   1.183228E-03    1.261000E-06    
*       3.300000E-07    -4.500000E-08   5.940000E-07    -1.000000E-09   
*       5.000000E-09    8.760000E-07    
CONM2*  9105            123             0               9.000000E-03    
*       -4.900470E-04   1.610229E-03    3.547900E-05    
*       3.630000E-07    -5.000000E-09   5.910000E-07    3.000000E-09    
*       1.000000E-09    9.070000E-07    
CONM2*  9106            124             0               9.000000E-03    
*       -8.364100E-05   2.515137E-03    7.527000E-06    
*       3.490000E-07    4.100000E-08    5.290000E-07    -1.000000E-09   
*       -3.000000E-09   8.350000E-07    
CONM2*  9107            125             0               7.000000E-03    
*       3.353210E-04    1.363281E-03    -2.076900E-05   
*       1.840000E-07    1.000000E-08    3.760000E-07    -2.000000E-09   
*       -1.000000E-09   5.270000E-07    
CONM2*  9108            126             0               1.700000E-02    
*       -6.977764E-03   -5.859400E-05   -8.000000E-08   
*       4.090000E-07    -6.000000E-09   9.473000E-06    -0.000000E+00   
*       -0.000000E+00   9.821000E-06    
CONM2*  9109            128             0               8.000000E-03    
*       5.719020E-04    5.656740E-04    -1.761300E-05   
*       3.330000E-07    -7.300000E-08   4.450000E-07    0.000000E+00    
*       1.000000E-09    7.430000E-07    
CONM2*  9110            129             0               8.000000E-03    
*       -4.717360E-04   1.880127E-03    -1.428500E-05   
*       3.710000E-07    -7.600000E-08   3.830000E-07    0.000000E+00    
*       4.000000E-09    7.200000E-07    
CONM2*  9111            130             0               6.000000E-03    
*       -5.304040E-04   2.504150E-03    3.623000E-05    
*       2.150000E-07    -1.100000E-08   2.940000E-07    -2.000000E-09   
*       2.000000E-09    4.820000E-07    
CONM2*  9112            131             0               6.000000E-03    
*       3.239000E-06    1.931885E-03    2.593000E-06    
*       2.290000E-07    1.300000E-08    2.960000E-07    0.000000E+00    
*       -0.000000E+00   4.990000E-07    
CONM2*  9113            132             0               6.000000E-03    
*       -8.079400E-05   1.873047E-03    -7.390000E-07   
*       2.240000E-07    1.100000E-08    2.730000E-07    0.000000E+00    
*       -0.000000E+00   4.730000E-07    
CONM2*  9114            134             0               6.000000E-03    
*       -1.806600E-05   1.859863E-03    4.320000E-06    
*       2.120000E-07    9.000000E-09    2.470000E-07    0.000000E+00    
*       -0.000000E+00   4.370000E-07    
CONM2*  9115            135             0               6.000000E-03    
*       -1.561170E-04   1.733887E-03    -1.342800E-05   
*       1.980000E-07    1.300000E-08    2.220000E-07    0.000000E+00    
*       0.000000E+00    4.000000E-07    
CONM2*  9116            136             0               6.000000E-03    
*       5.971580E-04    2.383545E-03    6.125700E-05    
*       2.560000E-07    -2.300000E-08   2.350000E-07    3.000000E-09    
*       -2.000000E-09   4.710000E-07    
CONM2*  9117            137             0               4.000000E-03    
*       -6.699240E-04   9.631350E-04    -7.149500E-05   
*       1.290000E-07    -2.100000E-08   1.350000E-07    -2.000000E-09   
*       -2.000000E-09   2.500000E-07    
CONM2*  9118            138             0               1.400000E-02    
*       -9.368670E-03   -1.477050E-04   1.090000E-06    
*       2.980000E-07    1.800000E-08    7.365000E-06    0.000000E+00    
*       0.000000E+00    7.623000E-06    
CONM2*  9119            140             0               5.000000E-03    
*       -5.132000E-04   6.960450E-04    -3.500000E-08   
*       2.350000E-07    2.900000E-08    1.740000E-07    -0.000000E+00   
*       -0.000000E+00   3.920000E-07    
CONM2*  9120            141             0               5.000000E-03    
*       4.294060E-04    2.071777E-03    -1.141000E-06   
*       1.840000E-07    2.400000E-08    1.400000E-07    0.000000E+00    
*       -0.000000E+00   3.110000E-07    
CONM2*  9121            142             0               6.000000E-03    
*       3.090470E-04    3.285645E-03    1.502300E-05    
*       1.660000E-07    -1.100000E-08   3.310000E-07    -0.000000E+00   
*       -0.000000E+00   4.700000E-07    
CONM2*  9122            143             0               3.800000E-02    
*       -7.336990E-03   1.562500E-05    1.334000E-05    
*       1.519000E-06    -5.400000E-08   2.326200E-05    3.000000E-09    
*       -6.000000E-09   2.437500E-05    
CONM2*  9123            144             0               1.900000E-02    
*       -7.811234E-03   -4.985596E-03   -2.707300E-05   
*       2.620000E-07    -1.200000E-08   1.138000E-05    -3.000000E-09   
*       -3.000000E-09   1.143900E-05    
