GRDSET , ,  , , , ,   , 456
EIGRL ,   1,   ,   , 6
MAT1 ,   3, 1.00E7,  ,0.334, 2.5383-4
GRID*                  1               0 -6.99353086E-16 1.841179403E+01 ED00001
*ED00001 -4.00000000E+00
GRID*                  2               0 -6.99353086E-16 1.782358805E+01 ED00002
*ED00002 -4.00000000E+00
GRID*                  3               0 -6.99353086E-16 1.723538208E+01 ED00003
*ED00003 -4.00000000E+00
GRID*                  4               0 -6.99353086E-16 1.664717611E+01 ED00004
*ED00004 -4.00000000E+00
GRID*                  5               0  0.00000000E+00 1.900000000E+01 ED00005
*ED00005 -4.00000000E+00
GRID*                  6               0 -6.99353086E-16 1.605897013E+01 ED00006
*ED00006 -4.00000000E+00
GRID*                  7               0 1.000000000E+00 1.664719693E+01 ED00007
*ED00007 -4.00000000E+00
GRID*                  8               0 1.000000000E+00 1.723539770E+01 ED00008
*ED00008 -4.00000000E+00
GRID*                  9               0 1.000000000E+00 1.782359847E+01 ED00009
*ED00009 -4.00000000E+00
GRID*                 10               0 1.000000000E+00 1.841179923E+01 ED00010
*ED00010 -4.00000000E+00
GRID*                 11               0 1.000000000E+00 1.605870597E+01 ED00011
*ED00011 -4.00034822E+00
GRID*                 12               0 1.000000000E+00 1.900000000E+01 ED00012
*ED00012 -4.00000000E+00
GRID*                 13               0 5.000000000E-01 1.605901741E+01 ED00013
*ED00013 -3.99999986E+00
GRID*                 14               0 5.000000000E-01 1.664733000E+01 ED00014
*ED00014 -4.00000000E+00
GRID*                 15               0 5.000000000E-01 1.723549750E+01 ED00015
*ED00015 -4.00000000E+00
GRID*                 16               0 5.000000000E-01 1.782366500E+01 ED00016
*ED00016 -4.00000000E+00
GRID*                 17               0 5.000000000E-01 1.841183250E+01 ED00017
*ED00017 -4.00000000E+00
GRID*                 18               0 5.000000000E-01 1.900000000E+01 ED00018
*ED00018 -4.00000000E+00
GRID*                 19               0 1.000000000E+00 1.494098259E+01 ED00019
*ED00019 -3.99999986E+00
GRID*                 20               0 5.000000000E-01 1.494098259E+01 ED00020
*ED00020 -3.99999986E+00
$ ... 16274 like lines cut
CORD2R*                1               0  0.00000000E+00  0.00000000E+00 VZ08158
*VZ08158  0.00000000E+00  0.00000000E+00  0.00000000E+00 3.937007874E-01 VZ08159
*VZ08159  0.00000000E+00 3.937007874E-01  0.00000000E+00
CORD2R*                2               0  0.00000000E+00  0.00000000E+00 VZ08160
*VZ08160  0.00000000E+00  0.00000000E+00  0.00000000E+00 3.937007874E-01 VZ08161
*VZ08161  0.00000000E+00 3.937007874E-01  0.00000000E+00
CORD2R*                3               0  0.00000000E+00  0.00000000E+00 VZ08162
*VZ08162  0.00000000E+00  0.00000000E+00  0.00000000E+00 3.937007874E-01 VZ08163
*VZ08163  0.00000000E+00 3.937007874E-01  0.00000000E+00
CORD2R*                4               0  0.00000000E+00  0.00000000E+00 VZ08164
*VZ08164  0.00000000E+00  0.00000000E+00  0.00000000E+00 3.937007874E-01 VZ08165
*VZ08165  0.00000000E+00 3.937007874E-01  0.00000000E+00
CORD2R*                5               0  0.00000000E+00  0.00000000E+00 VZ08166
*VZ08166  0.00000000E+00  0.00000000E+00  0.00000000E+00 3.937007874E-01 VZ08167
*VZ08167  0.00000000E+00 3.937007874E-01  0.00000000E+00
CORD2R*                6               0  0.00000000E+00  0.00000000E+00 VZ08168
*VZ08168  0.00000000E+00  0.00000000E+00  0.00000000E+00 3.937007874E-01 VZ08169
*VZ08169  0.00000000E+00 3.937007874E-01  0.00000000E+00
CORD2R*                7               0  0.00000000E+00  0.00000000E+00 VZ08170
*VZ08170  0.00000000E+00  0.00000000E+00  0.00000000E+00 3.937007874E-01 VZ08171
*VZ08171  0.00000000E+00 3.937007874E-01  0.00000000E+00
CORD2R*                8               0  0.00000000E+00  0.00000000E+00 VZ08172
*VZ08172  0.00000000E+00  0.00000000E+00  0.00000000E+00 3.937007874E-01 VZ08173
*VZ08173  0.00000000E+00 3.937007874E-01  0.00000000E+00
CORD2R*                9               0  0.00000000E+00  0.00000000E+00 VZ08174
*VZ08174  0.00000000E+00  0.00000000E+00  0.00000000E+00 3.937007874E-01 VZ08175
*VZ08175  0.00000000E+00 3.937007874E-01  0.00000000E+00
CORD2R*               10               0  0.00000000E+00  0.00000000E+00 VZ08176
*VZ08176  0.00000000E+00  0.00000000E+00  0.00000000E+00 3.937007874E-01 VZ08177
*VZ08177  0.00000000E+00 3.937007874E-01  0.00000000E+00
CORD2R*               11               0  0.00000000E+00  0.00000000E+00 VZ08178
*VZ08178  0.00000000E+00  0.00000000E+00  0.00000000E+00 3.937007874E-01 VZ08179
*VZ08179  0.00000000E+00 3.937007874E-01  0.00000000E+00
CORD2R*               12               0  0.00000000E+00  0.00000000E+00 VZ08180
*VZ08180  0.00000000E+00  0.00000000E+00  0.00000000E+00 3.937007874E-01 VZ08181
*VZ08181  0.00000000E+00 3.937007874E-01  0.00000000E+00
CORD2R*               13               0  0.00000000E+00  0.00000000E+00 VZ08182
*VZ08182  0.00000000E+00  0.00000000E+00  0.00000000E+00 3.937007874E-01 VZ08183
*VZ08183  0.00000000E+00 3.937007874E-01  0.00000000E+00
CORD2R*               14               0  0.00000000E+00  0.00000000E+00 VZ08184
*VZ08184  0.00000000E+00  0.00000000E+00  0.00000000E+00 3.937007874E-01 VZ08185
*VZ08185  0.00000000E+00 3.937007874E-01  0.00000000E+00
CORD2R*               15               0  0.00000000E+00  0.00000000E+00 VZ08186
*VZ08186  0.00000000E+00  0.00000000E+00  0.00000000E+00 3.937007874E-01 VZ08187
*VZ08187  0.00000000E+00 3.937007874E-01  0.00000000E+00
CORD2R*               16               0  0.00000000E+00  0.00000000E+00 VZ08188
*VZ08188  0.00000000E+00  0.00000000E+00  0.00000000E+00 3.937007874E-01 VZ08189
*VZ08189  0.00000000E+00 3.937007874E-01  0.00000000E+00
CORD2R*               17               0  0.00000000E+00  0.00000000E+00 VZ08190
*VZ08190  0.00000000E+00  0.00000000E+00  0.00000000E+00 3.937007874E-01 VZ08191
*VZ08191  0.00000000E+00 3.937007874E-01  0.00000000E+00
CORD2R*               18               0  0.00000000E+00  0.00000000E+00 VZ08192
*VZ08192  0.00000000E+00  0.00000000E+00  0.00000000E+00 3.937007874E-01 VZ08193
*VZ08193  0.00000000E+00 3.937007874E-01  0.00000000E+00
CORD2R*               19               0  0.00000000E+00  0.00000000E+00 VZ08194
*VZ08194  0.00000000E+00  0.00000000E+00  0.00000000E+00 3.937007874E-01 VZ08195
*VZ08195  0.00000000E+00 3.937007874E-01  0.00000000E+00
CORD2R*               20               0  0.00000000E+00  0.00000000E+00 VZ08196
*VZ08196  0.00000000E+00  0.00000000E+00  0.00000000E+00 3.937007874E-01 VZ08197
*VZ08197  0.00000000E+00 3.937007874E-01  0.00000000E+00
$ ... 3063 like lines cut
SPC*                   1            3453               1  0.00000000E+00
SPC*                   1            3453               2  0.00000000E+00
SPC*                   1            3453               3  0.00000000E+00
SPC*                   1            3457               1  0.00000000E+00
SPC*                   1            3457               2  0.00000000E+00
SPC*                   1            3457               3  0.00000000E+00
SPC*                   1            3458               1  0.00000000E+00
SPC*                   1            3458               2  0.00000000E+00
SPC*                   1            3458               3  0.00000000E+00
SPC*                   1            3479               1  0.00000000E+00
SPC*                   1            3479               2  0.00000000E+00
SPC*                   1            3479               3  0.00000000E+00
SPC*                   1            3484               1  0.00000000E+00
SPC*                   1            3484               2  0.00000000E+00
SPC*                   1            3484               3  0.00000000E+00
SPC*                   1            3485               1  0.00000000E+00
SPC*                   1            3485               2  0.00000000E+00
SPC*                   1            3485               3  0.00000000E+00
SPC*                   1            3486               1  0.00000000E+00
SPC*                   1            3486               2  0.00000000E+00
$ ... 1513 like lines cut
CHEXA,1,1,36,69,65,64,14,7,+A1
+A1,11,13
CHEXA,2,1,59,36,64,63,4,14,+A2
+A2,13,6
CHEXA,3,1,37,68,69,36,15,8,+A3
+A3,7,14
CHEXA,4,1,60,37,36,59,3,15,+A4
+A4,14,4
CHEXA,5,1,38,67,68,37,16,9,+A5
+A5,8,15
CHEXA,6,1,61,38,37,60,2,16,+A6
+A6,15,3
CHEXA,7,1,39,66,67,38,17,10,+A7
+A7,9,16
CHEXA,8,1,62,39,38,61,1,17,+A8
+A8,16,2
CHEXA,9,1,57,34,66,39,18,12,+A9
+A9,10,17
CHEXA,10,1,58,57,39,62,5,18,+A10
+A10,17,1
CHEXA,11,1,43,49,51,50,36,69,+A11
+A11,65,64
CHEXA,12,1,52,43,50,56,59,36,+A12
+A12,64,63
CHEXA,13,1,42,48,49,43,37,68,+A13
+A13,69,36
CHEXA,14,1,53,42,43,52,60,37,+A14
+A14,36,59
CHEXA,15,1,41,47,48,42,38,67,+A15
+A15,68,37
CHEXA,16,1,54,41,42,53,61,38,+A16
+A16,37,60
CHEXA,17,1,40,46,47,41,39,66,+A17
+A17,67,38
CHEXA,18,1,55,40,41,54,62,39,+A18
+A18,38,61
CHEXA,19,1,44,35,46,40,57,34,+A19
+A19,66,39
CHEXA,20,1,45,44,40,55,58,57,+A20
+A20,39,62
$ ... 2194 like lines cut
CPENTA,1118,2,1879,1892,1880,1985,1999,1986
CHEXA,1119,1,1881,1894,1505,1504,1988,2002,+A1119
+A1119,2001,1987
CHEXA,1120,1,1882,1895,1894,1881,1989,2003,+A1120
+A1120,2002,1988
CHEXA,1121,1,1883,1896,1895,1882,1990,2004,+A1121
+A1121,2003,1989
CHEXA,1122,1,1884,1897,1896,1883,1991,2005,+A1122
+A1122,2004,1990
CHEXA,1123,1,1885,1898,1897,1884,1992,2006,+A1123
+A1123,2005,1991
CHEXA,1124,1,1886,1899,1898,1885,1993,2007,+A1124
+A1124,2006,1992
CHEXA,1125,1,1887,1900,1899,1886,1994,2008,+A1125
+A1125,2007,1993
CHEXA,1126,1,1888,1901,1900,1887,1995,2009,+A1126
+A1126,2008,1994
CHEXA,1127,1,1889,1902,1901,1888,1996,2010,+A1127
+A1127,2009,1995
CHEXA,1128,1,1890,1903,1902,1889,1997,2011,+A1128
+A1128,2010,1996
CHEXA,1129,1,1891,1905,1903,1890,1998,2013,+A1129
+A1129,2011,1997
CHEXA,1130,1,1893,1904,1905,1891,2000,2012,+A1130
+A1130,2013,1998
CPENTA,1131,2,1892,1904,1893,1999,2012,2000
CHEXA,1132,1,1894,1906,1506,1505,2002,2015,+A1132
+A1132,2014,2001
CHEXA,1133,1,1895,1907,1906,1894,2003,2016,+A1133
+A1133,2015,2002
CHEXA,1134,1,1896,1908,1907,1895,2004,2017,+A1134
+A1134,2016,2003
CHEXA,1135,1,1897,1909,1908,1896,2005,2018,+A1135
+A1135,2017,2004
CHEXA,1136,1,1898,1910,1909,1897,2006,2019,+A1136
+A1136,2018,2005
CHEXA,1137,1,1899,1911,1910,1898,2007,2020,+A1137
+A1137,2019,2006
CHEXA,1138,1,1900,1912,1911,1899,2008,2021,+A1138
+A1138,2020,2007
CHEXA,1139,1,1901,1913,1912,1900,2009,2022,+A1139
+A1139,2021,2008
CHEXA,1140,1,1902,1914,1913,1901,2010,2023,+A1140
+A1140,2022,2009
CHEXA,1141,1,1903,1916,1914,1902,2011,2025,+A1141
+A1141,2023,2010
CHEXA,1142,1,1905,1915,1916,1903,2013,2024,+A1142
+A1142,2025,2011
CPENTA,1143,2,1904,1915,1905,2012,2024,2013
CHEXA,1144,1,1906,1917,1507,1506,2015,2027,+A1144
+A1144,2026,2014
CHEXA,1145,1,1907,1918,1917,1906,2016,2028,+A1145
+A1145,2027,2015
CHEXA,1146,1,1908,1919,1918,1907,2017,2029,+A1146
+A1146,2028,2016
CHEXA,1147,1,1909,1920,1919,1908,2018,2030,+A1147
+A1147,2029,2017
CHEXA,1148,1,1910,1921,1920,1909,2019,2031,+A1148
+A1148,2030,2018
CHEXA,1149,1,1911,1922,1921,1910,2020,2032,+A1149
+A1149,2031,2019
CHEXA,1150,1,1912,1923,1922,1911,2021,2033,+A1150
+A1150,2032,2020
CHEXA,1151,1,1913,1924,1923,1912,2022,2034,+A1151
+A1151,2033,2021
CHEXA,1152,1,1914,1926,1924,1913,2023,2036,+A1152
+A1152,2034,2022
CHEXA,1153,1,1916,1925,1926,1914,2025,2035,+A1153
+A1153,2036,2023
CPENTA,1154,2,1915,1925,1916,2024,2035,2025
CHEXA,1155,1,1917,1927,1508,1507,2027,2038,+A1155
+A1155,2037,2026
CHEXA,1156,1,1918,1928,1927,1917,2028,2039,+A1156
+A1156,2038,2027
CHEXA,1157,1,1919,1929,1928,1918,2029,2040,+A1157
+A1157,2039,2028
CHEXA,1158,1,1920,1930,1929,1919,2030,2041,+A1158
+A1158,2040,2029
CHEXA,1159,1,1921,1931,1930,1920,2031,2042,+A1159
+A1159,2041,2030
CHEXA,1160,1,1922,1932,1931,1921,2032,2043,+A1160
+A1160,2042,2031
CHEXA,1161,1,1923,1933,1932,1922,2033,2044,+A1161
+A1161,2043,2032
CHEXA,1162,1,1924,1935,1933,1923,2034,2046,+A1162
+A1162,2044,2033
CHEXA,1163,1,1926,1934,1935,1924,2036,2045,+A1163
+A1163,2046,2034
CPENTA,1164,2,1925,1934,1926,2035,2045,2036
CHEXA,1165,1,1927,1936,1509,1508,2038,2048,+A1165
+A1165,2047,2037
CHEXA,1166,1,1928,1937,1936,1927,2039,2049,+A1166
+A1166,2048,2038
CHEXA,1167,1,1929,1938,1937,1928,2040,2050,+A1167
+A1167,2049,2039
CHEXA,1168,1,1930,1939,1938,1929,2041,2051,+A1168
+A1168,2050,2040
CHEXA,1169,1,1931,1940,1939,1930,2042,2052,+A1169
+A1169,2051,2041
CHEXA,1170,1,1932,1941,1940,1931,2043,2053,+A1170
+A1170,2052,2042
CHEXA,1171,1,1933,1943,1941,1932,2044,2055,+A1171
+A1171,2053,2043
CHEXA,1172,1,1935,1942,1943,1933,2046,2054,+A1172
+A1172,2055,2044
CPENTA,1173,2,1934,1942,1935,2045,2054,2046
CHEXA,1174,1,1936,1944,1510,1509,2048,2057,+A1174
+A1174,2056,2047
CHEXA,1175,1,1937,1945,1944,1936,2049,2058,+A1175
+A1175,2057,2048
CHEXA,1176,1,1938,1946,1945,1937,2050,2059,+A1176
+A1176,2058,2049
CHEXA,1177,1,1939,1947,1946,1938,2051,2060,+A1177
+A1177,2059,2050
CHEXA,1178,1,1940,1948,1947,1939,2052,2061,+A1178
+A1178,2060,2051
CHEXA,1179,1,1941,1950,1948,1940,2053,2063,+A1179
+A1179,2061,2052
CHEXA,1180,1,1943,1949,1950,1941,2055,2062,+A1180
+A1180,2063,2053
CPENTA,1181,2,1942,1949,1943,2054,2062,2055
CHEXA,1182,1,1944,1951,1511,1510,2057,2065,+A1182
+A1182,2064,2056
CHEXA,1183,1,1945,1952,1951,1944,2058,2066,+A1183
+A1183,2065,2057
CHEXA,1184,1,1946,1953,1952,1945,2059,2067,+A1184
+A1184,2066,2058
CHEXA,1185,1,1947,1954,1953,1946,2060,2068,+A1185
+A1185,2067,2059
CHEXA,1186,1,1948,1956,1954,1947,2061,2070,+A1186
+A1186,2068,2060
CHEXA,1187,1,1950,1955,1956,1948,2063,2069,+A1187
+A1187,2070,2061
CPENTA,1188,2,1949,1955,1950,2062,2069,2063
CHEXA,1189,1,1951,1957,1512,1511,2065,2072,+A1189
+A1189,2071,2064
CHEXA,1190,1,1952,1958,1957,1951,2066,2073,+A1190
+A1190,2072,2065
CHEXA,1191,1,1953,1959,1958,1952,2067,2074,+A1191
+A1191,2073,2066
CHEXA,1192,1,1954,1961,1959,1953,2068,2076,+A1192
+A1192,2074,2067
CHEXA,1193,1,1956,1960,1961,1954,2070,2075,+A1193
+A1193,2076,2068
CPENTA,1194,2,1955,1960,1956,2069,2075,2070
CHEXA,1195,1,1957,1962,1513,1512,2072,2078,+A1195
+A1195,2077,2071
CHEXA,1196,1,1958,1963,1962,1957,2073,2079,+A1196
+A1196,2078,2072
CHEXA,1197,1,1959,1965,1963,1958,2074,2081,+A1197
+A1197,2079,2073
CHEXA,1198,1,1961,1964,1965,1959,2076,2080,+A1198
+A1198,2081,2074
CPENTA,1199,2,1960,1964,1961,2075,2080,2076
CHEXA,1200,1,1962,1966,1514,1513,2078,2083,+A1200
+A1200,2082,2077
CHEXA,1201,1,1963,1968,1966,1962,2079,2085,+A1201
+A1201,2083,2078
CHEXA,1202,1,1965,1967,1968,1963,2081,2084,+A1202
+A1202,2085,2079
CPENTA,1203,2,1964,1967,1965,2080,2084,2081
CHEXA,1204,1,1966,1970,1515,1514,2083,2088,+A1204
+A1204,2086,2082
CHEXA,1205,1,1968,1969,1970,1966,2085,2087,+A1205
+A1205,2088,2083
CPENTA,1206,2,1967,1969,1968,2084,2087,2085
CHEXA,1207,1,1970,1971,1516,1515,2088,2089,+A1207
+A1207,2090,2086
CPENTA,1208,2,1969,1971,1970,2087,2089,2088
CPENTA,1209,2,1971,895,1516,2089,940,2090
CHEXA,1210,1,1973,1988,1987,1972,2092,2107,+A1210
+A1210,2106,2091
CHEXA,1211,1,1974,1989,1988,1973,2093,2108,+A1211
+A1211,2107,2092
CHEXA,1212,1,1975,1990,1989,1974,2094,2109,+A1212
+A1212,2108,2093
CHEXA,1213,1,1976,1991,1990,1975,2095,2110,+A1213
+A1213,2109,2094
CHEXA,1214,1,1977,1992,1991,1976,2096,2111,+A1214
+A1214,2110,2095
CHEXA,1215,1,1978,1993,1992,1977,2097,2112,+A1215
+A1215,2111,2096
CHEXA,1216,1,1979,1994,1993,1978,2098,2113,+A1216
+A1216,2112,2097
CHEXA,1217,1,1980,1995,1994,1979,2099,2114,+A1217
+A1217,2113,2098
CHEXA,1218,1,1981,1996,1995,1980,2100,2115,+A1218
+A1218,2114,2099
CHEXA,1219,1,1982,1997,1996,1981,2101,2116,+A1219
+A1219,2115,2100
CHEXA,1220,1,1983,1998,1997,1982,2102,2117,+A1220
+A1220,2116,2101
CHEXA,1221,1,1984,2000,1998,1983,2103,2119,+A1221
+A1221,2117,2102
CHEXA,1222,1,1986,1999,2000,1984,2105,2118,+A1222
+A1222,2119,2103
CPENTA,1223,2,1985,1999,1986,2104,2118,2105
CHEXA,1224,1,1988,2002,2001,1987,2107,2121,+A1224
+A1224,2120,2106
CHEXA,1225,1,1989,2003,2002,1988,2108,2122,+A1225
+A1225,2121,2107
CHEXA,1226,1,1990,2004,2003,1989,2109,2123,+A1226
+A1226,2122,2108
CHEXA,1227,1,1991,2005,2004,1990,2110,2124,+A1227
+A1227,2123,2109
CHEXA,1228,1,1992,2006,2005,1991,2111,2125,+A1228
+A1228,2124,2110
CHEXA,1229,1,1993,2007,2006,1992,2112,2126,+A1229
+A1229,2125,2111
CHEXA,1230,1,1994,2008,2007,1993,2113,2127,+A1230
+A1230,2126,2112
CHEXA,1231,1,1995,2009,2008,1994,2114,2128,+A1231
+A1231,2127,2113
CHEXA,1232,1,1996,2010,2009,1995,2115,2129,+A1232
+A1232,2128,2114
CHEXA,1233,1,1997,2011,2010,1996,2116,2130,+A1233
+A1233,2129,2115
CHEXA,1234,1,1998,2013,2011,1997,2117,2132,+A1234
+A1234,2130,2116
CHEXA,1235,1,2000,2012,2013,1998,2119,2131,+A1235
+A1235,2132,2117
CPENTA,1236,2,1999,2012,2000,2118,2131,2119
CHEXA,1237,1,2002,2015,2014,2001,2121,2134,+A1237
+A1237,2133,2120
CHEXA,1238,1,2003,2016,2015,2002,2122,2135,+A1238
+A1238,2134,2121
CHEXA,1239,1,2004,2017,2016,2003,2123,2136,+A1239
+A1239,2135,2122
CHEXA,1240,1,2005,2018,2017,2004,2124,2137,+A1240
+A1240,2136,2123
CHEXA,1241,1,2006,2019,2018,2005,2125,2138,+A1241
+A1241,2137,2124
CHEXA,1242,1,2007,2020,2019,2006,2126,2139,+A1242
+A1242,2138,2125
CHEXA,1243,1,2008,2021,2020,2007,2127,2140,+A1243
+A1243,2139,2126
CHEXA,1244,1,2009,2022,2021,2008,2128,2141,+A1244
+A1244,2140,2127
CHEXA,1245,1,2010,2023,2022,2009,2129,2142,+A1245
+A1245,2141,2128
CHEXA,1246,1,2011,2025,2023,2010,2130,2144,+A1246
+A1246,2142,2129
CHEXA,1247,1,2013,2024,2025,2011,2132,2143,+A1247
+A1247,2144,2130
CPENTA,1248,2,2012,2024,2013,2131,2143,2132
CHEXA,1249,1,2015,2027,2026,2014,2134,2146,+A1249
+A1249,2145,2133
CHEXA,1250,1,2016,2028,2027,2015,2135,2147,+A1250
+A1250,2146,2134
CHEXA,1251,1,2017,2029,2028,2016,2136,2148,+A1251
+A1251,2147,2135
CHEXA,1252,1,2018,2030,2029,2017,2137,2149,+A1252
+A1252,2148,2136
CHEXA,1253,1,2019,2031,2030,2018,2138,2150,+A1253
+A1253,2149,2137
CHEXA,1254,1,2020,2032,2031,2019,2139,2151,+A1254
+A1254,2150,2138
CHEXA,1255,1,2021,2033,2032,2020,2140,2152,+A1255
+A1255,2151,2139
CHEXA,1256,1,2022,2034,2033,2021,2141,2153,+A1256
+A1256,2152,2140
CHEXA,1257,1,2023,2036,2034,2022,2142,2155,+A1257
+A1257,2153,2141
CHEXA,1258,1,2025,2035,2036,2023,2144,2154,+A1258
+A1258,2155,2142
CPENTA,1259,2,2024,2035,2025,2143,2154,2144
CHEXA,1260,1,2027,2038,2037,2026,2146,2157,+A1260
+A1260,2156,2145
CHEXA,1261,1,2028,2039,2038,2027,2147,2158,+A1261
+A1261,2157,2146
CHEXA,1262,1,2029,2040,2039,2028,2148,2159,+A1262
+A1262,2158,2147
CHEXA,1263,1,2030,2041,2040,2029,2149,2160,+A1263
+A1263,2159,2148
CHEXA,1264,1,2031,2042,2041,2030,2150,2161,+A1264
+A1264,2160,2149
CHEXA,1265,1,2032,2043,2042,2031,2151,2162,+A1265
+A1265,2161,2150
CHEXA,1266,1,2033,2044,2043,2032,2152,2163,+A1266
+A1266,2162,2151
CHEXA,1267,1,2034,2046,2044,2033,2153,2165,+A1267
+A1267,2163,2152
CHEXA,1268,1,2036,2045,2046,2034,2155,2164,+A1268
+A1268,2165,2153
CPENTA,1269,2,2035,2045,2036,2154,2164,2155
CHEXA,1270,1,2038,2048,2047,2037,2157,2167,+A1270
+A1270,2166,2156
CHEXA,1271,1,2039,2049,2048,2038,2158,2168,+A1271
+A1271,2167,2157
CHEXA,1272,1,2040,2050,2049,2039,2159,2169,+A1272
+A1272,2168,2158
CHEXA,1273,1,2041,2051,2050,2040,2160,2170,+A1273
+A1273,2169,2159
CHEXA,1274,1,2042,2052,2051,2041,2161,2171,+A1274
+A1274,2170,2160
CHEXA,1275,1,2043,2053,2052,2042,2162,2172,+A1275
+A1275,2171,2161
CHEXA,1276,1,2044,2055,2053,2043,2163,2174,+A1276
+A1276,2172,2162
CHEXA,1277,1,2046,2054,2055,2044,2165,2173,+A1277
+A1277,2174,2163
CPENTA,1278,2,2045,2054,2046,2164,2173,2165
CHEXA,1279,1,2048,2057,2056,2047,2167,2176,+A1279
+A1279,2175,2166
CHEXA,1280,1,2049,2058,2057,2048,2168,2177,+A1280
+A1280,2176,2167
CHEXA,1281,1,2050,2059,2058,2049,2169,2178,+A1281
+A1281,2177,2168
CHEXA,1282,1,2051,2060,2059,2050,2170,2179,+A1282
+A1282,2178,2169
CHEXA,1283,1,2052,2061,2060,2051,2171,2180,+A1283
+A1283,2179,2170
CHEXA,1284,1,2053,2063,2061,2052,2172,2182,+A1284
+A1284,2180,2171
CHEXA,1285,1,2055,2062,2063,2053,2174,2181,+A1285
+A1285,2182,2172
CPENTA,1286,2,2054,2062,2055,2173,2181,2174
CHEXA,1287,1,2057,2065,2064,2056,2176,2184,+A1287
+A1287,2183,2175
CHEXA,1288,1,2058,2066,2065,2057,2177,2185,+A1288
+A1288,2184,2176
CHEXA,1289,1,2059,2067,2066,2058,2178,2186,+A1289
+A1289,2185,2177
CHEXA,1290,1,2060,2068,2067,2059,2179,2187,+A1290
+A1290,2186,2178
CHEXA,1291,1,2061,2070,2068,2060,2180,2189,+A1291
+A1291,2187,2179
CHEXA,1292,1,2063,2069,2070,2061,2182,2188,+A1292
+A1292,2189,2180
CPENTA,1293,2,2062,2069,2063,2181,2188,2182
CHEXA,1294,1,2065,2072,2071,2064,2184,2191,+A1294
+A1294,2190,2183
CHEXA,1295,1,2066,2073,2072,2065,2185,2192,+A1295
+A1295,2191,2184
CHEXA,1296,1,2067,2074,2073,2066,2186,2193,+A1296
+A1296,2192,2185
CHEXA,1297,1,2068,2076,2074,2067,2187,2195,+A1297
+A1297,2193,2186
CHEXA,1298,1,2070,2075,2076,2068,2189,2194,+A1298
+A1298,2195,2187
CPENTA,1299,2,2069,2075,2070,2188,2194,2189
CHEXA,1300,1,2072,2078,2077,2071,2191,2197,+A1300
+A1300,2196,2190
CHEXA,1301,1,2073,2079,2078,2072,2192,2198,+A1301
+A1301,2197,2191
CHEXA,1302,1,2074,2081,2079,2073,2193,2200,+A1302
+A1302,2198,2192
CHEXA,1303,1,2076,2080,2081,2074,2195,2199,+A1303
+A1303,2200,2193
CPENTA,1304,2,2075,2080,2076,2194,2199,2195
CHEXA,1305,1,2078,2083,2082,2077,2197,2202,+A1305
+A1305,2201,2196
CHEXA,1306,1,2079,2085,2083,2078,2198,2204,+A1306
+A1306,2202,2197
CHEXA,1307,1,2081,2084,2085,2079,2200,2203,+A1307
+A1307,2204,2198
CPENTA,1308,2,2080,2084,2081,2199,2203,2200
CHEXA,1309,1,2083,2088,2086,2082,2202,2207,+A1309
+A1309,2205,2201
CHEXA,1310,1,2085,2087,2088,2083,2204,2206,+A1310
+A1310,2207,2202
CPENTA,1311,2,2084,2087,2085,2203,2206,2204
CHEXA,1312,1,2088,2089,2090,2086,2207,2208,+A1312
+A1312,2209,2205
CPENTA,1313,2,2087,2089,2088,2206,2208,2207
CPENTA,1314,2,2089,940,2090,2208,941,2209
CHEXA,1315,1,2216,2285,2286,2455,2351,2294,+A1315
+A1315,2287,2376
CHEXA,1316,1,2217,2216,2455,2456,2352,2351,+A1316
+A1316,2376,2375
CHEXA,1317,1,2218,2217,2456,2457,2353,2352,+A1317
+A1317,2375,2374
CHEXA,1318,1,2219,2218,2457,2458,2354,2353,+A1318
+A1318,2374,2373
CHEXA,1319,1,2220,2219,2458,2459,2355,2354,+A1319
+A1319,2373,2372
CHEXA,1320,1,2221,2220,2459,2460,2356,2355,+A1320
+A1320,2372,2371
CHEXA,1321,1,2222,2221,2460,2461,2357,2356,+A1321
+A1321,2371,2370
CHEXA,1322,1,2223,2222,2461,2462,2358,2357,+A1322
+A1322,2370,2369
CHEXA,1323,1,2224,2223,2462,2463,2359,2358,+A1323
+A1323,2369,2368
CHEXA,1324,1,2225,2224,2463,2464,2360,2359,+A1324
+A1324,2368,2367
CHEXA,1325,1,2226,2225,2464,2465,2361,2360,+A1325
+A1325,2367,2366
CHEXA,1326,1,2227,2226,2465,2466,2362,2361,+A1326
+A1326,2366,2365
CHEXA,1327,1,2228,2227,2466,2467,2363,2362,+A1327
+A1327,2365,2364
CHEXA,1328,1,2469,2228,2467,2468,1674,2363,+A1328
+A1328,2364,1676
CHEXA,1329,1,2229,2284,2285,2216,2338,2295,+A1329
+A1329,2294,2351
CHEXA,1330,1,2230,2229,2216,2217,2339,2338,+A1330
+A1330,2351,2352
CHEXA,1331,1,2231,2230,2217,2218,2340,2339,+A1331
+A1331,2352,2353
CHEXA,1332,1,2232,2231,2218,2219,2341,2340,+A1332
+A1332,2353,2354
CHEXA,1333,1,2233,2232,2219,2220,2342,2341,+A1333
+A1333,2354,2355
CHEXA,1334,1,2234,2233,2220,2221,2343,2342,+A1334
+A1334,2355,2356
$ ... 306 like lines cut
CPENTA,1488,2,2104,2478,2288,1985,2499,2281
CHEXA,1489,1,2475,2481,2480,2474,2496,2502,+A1489
+A1489,2501,2495
CHEXA,1490,1,2476,2482,2481,2475,2497,2503,+A1490
+A1490,2502,2496
CHEXA,1491,1,2477,2484,2482,2476,2498,2505,+A1491
+A1491,2503,2497
CHEXA,1492,1,2479,2483,2484,2477,2500,2504,+A1492
+A1492,2505,2498
CPENTA,1493,2,2478,2483,2479,2499,2504,2500
CHEXA,1494,1,2481,2486,2485,2480,2502,2507,+A1494
+A1494,2506,2501
CHEXA,1495,1,2482,2488,2486,2481,2503,2509,+A1495
+A1495,2507,2502
CHEXA,1496,1,2484,2487,2488,2482,2505,2508,+A1496
+A1496,2509,2503
CPENTA,1497,2,2483,2487,2484,2504,2508,2505
CHEXA,1498,1,2486,2491,2489,2485,2507,2512,+A1498
+A1498,2510,2506
CHEXA,1499,1,2488,2490,2491,2486,2509,2511,+A1499
+A1499,2512,2507
CPENTA,1500,2,2487,2490,2488,2508,2511,2509
CHEXA,1501,1,2491,2492,2494,2489,2512,2513,+A1501
+A1501,2515,2510
CPENTA,1502,2,2490,2492,2491,2511,2513,2512
CPENTA,1503,2,2492,2493,2494,2513,2514,2515
CHEXA,1504,1,2285,2496,2495,2286,2294,2517,+A1504
+A1504,2516,2287
CHEXA,1505,1,2284,2497,2496,2285,2295,2518,+A1505
+A1505,2517,2294
CHEXA,1506,1,2283,2498,2497,2284,2296,2519,+A1506
+A1506,2518,2295
CHEXA,1507,1,2282,2500,2498,2283,2297,2521,+A1507
+A1507,2519,2296
CHEXA,1508,1,2281,2499,2500,2282,2298,2520,+A1508
+A1508,2521,2297
CPENTA,1509,2,1985,2499,2281,1879,2520,2298
CHEXA,1510,1,2496,2502,2501,2495,2517,2523,+A1510
+A1510,2522,2516
CHEXA,1511,1,2497,2503,2502,2496,2518,2524,+A1511
+A1511,2523,2517
CHEXA,1512,1,2498,2505,2503,2497,2519,2526,+A1512
+A1512,2524,2518
CHEXA,1513,1,2500,2504,2505,2498,2521,2525,+A1513
+A1513,2526,2519
CPENTA,1514,2,2499,2504,2500,2520,2525,2521
CHEXA,1515,1,2502,2507,2506,2501,2523,2528,+A1515
+A1515,2527,2522
CHEXA,1516,1,2503,2509,2507,2502,2524,2530,+A1516
+A1516,2528,2523
CHEXA,1517,1,2505,2508,2509,2503,2526,2529,+A1517
+A1517,2530,2524
CPENTA,1518,2,2504,2508,2505,2525,2529,2526
CHEXA,1519,1,2507,2512,2510,2506,2528,2533,+A1519
+A1519,2531,2527
CHEXA,1520,1,2509,2511,2512,2507,2530,2532,+A1520
+A1520,2533,2528
CPENTA,1521,2,2508,2511,2509,2529,2532,2530
CHEXA,1522,1,2512,2513,2515,2510,2533,2534,+A1522
+A1522,2536,2531
CPENTA,1523,2,2511,2513,2512,2532,2534,2533
CPENTA,1524,2,2513,2514,2515,2534,2535,2536
CHEXA,1525,1,2537,1987,1972,2550,1517,1504,+A1525
+A1525,1451,1445
CHEXA,1526,1,2554,2537,2550,2551,1530,1517,+A1526
+A1526,1445,1446
CHEXA,1527,1,2538,2001,1987,2537,1518,1505,+A1527
+A1527,1504,1517
CHEXA,1528,1,2555,2538,2537,2554,1531,1518,+A1528
+A1528,1517,1530
CHEXA,1529,1,2539,2014,2001,2538,1519,1506,+A1529
+A1529,1505,1518
CHEXA,1530,1,2556,2539,2538,2555,1532,1519,+A1530
+A1530,1518,1531
CHEXA,1531,1,2540,2026,2014,2539,1520,1507,+A1531
+A1531,1506,1519
CHEXA,1532,1,2557,2540,2539,2556,1533,1520,+A1532
+A1532,1519,1532
CHEXA,1533,1,2541,2037,2026,2540,1521,1508,+A1533
+A1533,1507,1520
CHEXA,1534,1,2558,2541,2540,2557,1534,1521,+A1534
+A1534,1520,1533
CHEXA,1535,1,2542,2047,2037,2541,1522,1509,+A1535
+A1535,1508,1521
CHEXA,1536,1,2559,2542,2541,2558,1535,1522,+A1536
+A1536,1521,1534
CHEXA,1537,1,2543,2056,2047,2542,1523,1510,+A1537
+A1537,1509,1522
CHEXA,1538,1,2560,2543,2542,2559,1536,1523,+A1538
+A1538,1522,1535
CHEXA,1539,1,2544,2064,2056,2543,1524,1511,+A1539
+A1539,1510,1523
CHEXA,1540,1,2561,2544,2543,2560,1537,1524,+A1540
+A1540,1523,1536
CHEXA,1541,1,2545,2071,2064,2544,1525,1512,+A1541
+A1541,1511,1524
CHEXA,1542,1,2562,2545,2544,2561,1538,1525,+A1542
+A1542,1524,1537
CHEXA,1543,1,2546,2077,2071,2545,1526,1513,+A1543
+A1543,1512,1525
CHEXA,1544,1,2563,2546,2545,2562,1539,1526,+A1544
+A1544,1525,1538
$ ... 1860 like lines cut
CPENTA,2475,2,1054,3976,1763,1246,3998,1770
CHEXA,2476,1,3972,3978,3963,3964,3994,4001,+A2476
+A2476,4000,3993
CHEXA,2477,1,3973,3979,3978,3972,3995,4002,+A2477
+A2477,4001,3994
CHEXA,2478,1,3974,3980,3979,3973,3996,4003,+A2478
+A2478,4002,3995
CHEXA,2479,1,3975,3982,3980,3974,3997,4005,+A2479
+A2479,4003,3996
CHEXA,2480,1,3977,3981,3982,3975,3999,4004,+A2480
+A2480,4005,3997
CPENTA,2481,2,3976,3981,3977,3998,4004,3999
CHEXA,2482,1,3978,3983,3962,3963,4001,4007,+A2482
+A2482,4006,4000
CHEXA,2483,1,3979,3984,3983,3978,4002,4008,+A2483
+A2483,4007,4001
CHEXA,2484,1,3980,3986,3984,3979,4003,4010,+A2484
+A2484,4008,4002
CHEXA,2485,1,3982,3985,3986,3980,4005,4009,+A2485
+A2485,4010,4003
CPENTA,2486,2,3981,3985,3982,4004,4009,4005
CHEXA,2487,1,3983,3987,3961,3962,4007,4012,+A2487
+A2487,4011,4006
CHEXA,2488,1,3984,3989,3987,3983,4008,4014,+A2488
+A2488,4012,4007
CHEXA,2489,1,3986,3988,3989,3984,4010,4013,+A2489
+A2489,4014,4008
CPENTA,2490,2,3985,3988,3986,4009,4013,4010
CHEXA,2491,1,3987,3991,3960,3961,4012,4017,+A2491
+A2491,4015,4011
CHEXA,2492,1,3989,3990,3991,3987,4014,4016,+A2492
+A2492,4017,4012
CPENTA,2493,2,3988,3990,3989,4013,4016,4014
CHEXA,2494,1,3991,3992,3959,3960,4017,4018,+A2494
+A2494,4020,4015
CPENTA,2495,2,3990,3992,3991,4016,4018,4017
CPENTA,2496,2,3992,3958,3959,4018,4019,4020
CHEXA,2497,1,1775,3994,3993,2804,1721,4022,+A2497
+A2497,4021,2787
CHEXA,2498,1,1774,3995,3994,1775,1719,4023,+A2498
+A2498,4022,1721
CHEXA,2499,1,1773,3996,3995,1774,1718,4024,+A2499
+A2499,4023,1719
CHEXA,2500,1,1772,3997,3996,1773,1717,4025,+A2500
+A2500,4024,1718
CHEXA,2501,1,1771,3999,3997,1772,1716,4027,+A2501
+A2501,4025,1717
CHEXA,2502,1,1770,3998,3999,1771,1715,4026,+A2502
+A2502,4027,1716
CPENTA,2503,2,1246,3998,1770,1243,4026,1715
CHEXA,2504,1,3994,4001,4000,3993,4022,4029,+A2504
+A2504,4028,4021
CHEXA,2505,1,3995,4002,4001,3994,4023,4030,+A2505
+A2505,4029,4022
CHEXA,2506,1,3996,4003,4002,3995,4024,4031,+A2506
+A2506,4030,4023
CHEXA,2507,1,3997,4005,4003,3996,4025,4033,+A2507
+A2507,4031,4024
CHEXA,2508,1,3999,4004,4005,3997,4027,4032,+A2508
+A2508,4033,4025
CPENTA,2509,2,3998,4004,3999,4026,4032,4027
CHEXA,2510,1,4001,4007,4006,4000,4029,4035,+A2510
+A2510,4034,4028
CHEXA,2511,1,4002,4008,4007,4001,4030,4036,+A2511
+A2511,4035,4029
CHEXA,2512,1,4003,4010,4008,4002,4031,4038,+A2512
+A2512,4036,4030
CHEXA,2513,1,4005,4009,4010,4003,4033,4037,+A2513
+A2513,4038,4031
CPENTA,2514,2,4004,4009,4005,4032,4037,4033
CHEXA,2515,1,4007,4012,4011,4006,4035,4040,+A2515
+A2515,4039,4034
CHEXA,2516,1,4008,4014,4012,4007,4036,4042,+A2516
+A2516,4040,4035
CHEXA,2517,1,4010,4013,4014,4008,4038,4041,+A2517
+A2517,4042,4036
CPENTA,2518,2,4009,4013,4010,4037,4041,4038
CHEXA,2519,1,4012,4017,4015,4011,4040,4045,+A2519
+A2519,4043,4039
CHEXA,2520,1,4014,4016,4017,4012,4042,4044,+A2520
+A2520,4045,4040
CPENTA,2521,2,4013,4016,4014,4041,4044,4042
CHEXA,2522,1,4017,4018,4020,4015,4045,4046,+A2522
+A2522,4048,4043
CPENTA,2523,2,4016,4018,4017,4044,4046,4045
CPENTA,2524,2,4018,4019,4020,4046,4047,4048
CHEXA,2525,1,3993,4021,4049,4061,2804,2787,+A2525
+A2525,2788,2803
CHEXA,2526,1,3964,3993,4061,3965,2790,2804,+A2526
+A2526,2803,2789
CHEXA,2527,1,4000,4028,4050,4060,3993,4021,+A2527
+A2527,4049,4061
CHEXA,2528,1,3963,4000,4060,3966,3964,3993,+A2528
+A2528,4061,3965
CHEXA,2529,1,4006,4034,4051,4059,4000,4028,+A2529
+A2529,4050,4060
CHEXA,2530,1,3962,4006,4059,3967,3963,4000,+A2530
+A2530,4060,3966
CHEXA,2531,1,4011,4039,4052,4058,4006,4034,+A2531
+A2531,4051,4059
CHEXA,2532,1,3961,4011,4058,3968,3962,4006,+A2532
+A2532,4059,3967
CHEXA,2533,1,4015,4043,4053,4057,4011,4039,+A2533
+A2533,4052,4058
CHEXA,2534,1,3960,4015,4057,3969,3961,4011,+A2534
+A2534,4058,3968
CHEXA,2535,1,4020,4048,4054,4056,4015,4043,+A2535
+A2535,4053,4057
CHEXA,2536,1,3959,4020,4056,3970,3960,4015,+A2536
+A2536,4057,3969
CHEXA,2537,1,4019,4047,4055,4062,4020,4048,+A2537
+A2537,4054,4056
CHEXA,2538,1,3958,4019,4062,3971,3959,4020,+A2538
+A2538,4056,3970
CPENTA,2539,2,4019,4062,4064,3958,3971,4065
CPENTA,2540,2,4047,4055,4063,4019,4062,4064
CPENTA,2541,2,4076,4075,4067,8043,4071,4066
CPENTA,2542,2,4077,4074,4068,4076,4075,4067
CPENTA,2543,2,4078,4073,4069,4077,4074,4068
CPENTA,2544,2,4079,4072,4070,4078,4073,4069
CPENTA,2545,2,3971,4065,3958,4079,4072,4070
CHEXA,2546,1,4130,4067,4066,8059,4161,4076,+A2546
+A2546,8043,8057
CHEXA,2547,1,4129,4130,8059,8063,4162,4161,+A2547
+A2547,8057,8061
CHEXA,2548,1,4081,4129,8063,4080,4180,4162,+A2548
+A2548,8061,8065
CHEXA,2549,1,4128,4068,4067,4130,4159,4077,+A2549
+A2549,4076,4161
CHEXA,2550,1,4127,4128,4130,4129,4160,4159,+A2550
+A2550,4161,4162
CHEXA,2551,1,4082,4127,4129,4081,4179,4160,+A2551
+A2551,4162,4180
CHEXA,2552,1,4126,4069,4068,4128,4157,4078,+A2552
+A2552,4077,4159
CHEXA,2553,1,4125,4126,4128,4127,4158,4157,+A2553
+A2553,4159,4160
CHEXA,2554,1,4083,4125,4127,4082,4178,4158,+A2554
+A2554,4160,4179
CHEXA,2555,1,4124,4070,4069,4126,4155,4079,+A2555
+A2555,4078,4157
CHEXA,2556,1,4123,4124,4126,4125,4156,4155,+A2556
+A2556,4157,4158
CHEXA,2557,1,4084,4123,4125,4083,4177,4156,+A2557
+A2557,4158,4178
CHEXA,2558,1,4122,3958,4070,4124,4153,3971,+A2558
+A2558,4079,4155
CHEXA,2559,1,4121,4122,4124,4123,4154,4153,+A2559
+A2559,4155,4156
CHEXA,2560,1,4085,4121,4123,4084,4176,4154,+A2560
+A2560,4156,4177
CHEXA,2561,1,4120,3959,3958,4122,4151,3970,+A2561
+A2561,3971,4153
CHEXA,2562,1,4119,4120,4122,4121,4152,4151,+A2562
+A2562,4153,4154
CHEXA,2563,1,4086,4119,4121,4085,4175,4152,+A2563
+A2563,4154,4176
CHEXA,2564,1,4118,3960,3959,4120,4149,3969,+A2564
+A2564,3970,4151
CHEXA,2565,1,4117,4118,4120,4119,4150,4149,+A2565
+A2565,4151,4152
$ ... 2296 like lines cut
CPENTA,3714,2,5982,5979,5978,5983,5981,5980
CHEXA,3715,1,5929,5984,5985,5930,5933,5986,+A3715
+A3715,5619,5613
CHEXA,3716,1,5935,5987,5984,5929,5937,5988,+A3716
+A3716,5986,5933
CHEXA,3717,1,5939,5989,5987,5935,5941,5990,+A3717
+A3717,5988,5937
CHEXA,3718,1,5943,5991,5989,5939,5945,5992,+A3718
+A3718,5990,5941
CHEXA,3719,1,5947,5993,5991,5943,5949,5994,+A3719
+A3719,5992,5945
CHEXA,3720,1,5951,5995,5993,5947,5953,5996,+A3720
+A3720,5994,5949
CHEXA,3721,1,5955,5997,5995,5951,5957,5998,+A3721
+A3721,5996,5953
CHEXA,3722,1,5959,5999,5997,5955,5961,6000,+A3722
+A3722,5998,5957
CHEXA,3723,1,5963,6001,5999,5959,5965,6002,+A3723
+A3723,6000,5961
CHEXA,3724,1,5967,6003,6001,5963,5969,6004,+A3724
+A3724,6002,5965
CHEXA,3725,1,5971,6005,6003,5967,5973,6006,+A3725
+A3725,6004,5969
CHEXA,3726,1,5975,6007,6005,5971,5977,6008,+A3726
+A3726,6006,5973
CPENTA,3727,2,5979,6007,5975,5981,6008,5977
CHEXA,3728,1,5984,6009,6010,5985,5986,6011,+A3728
+A3728,5624,5619
CHEXA,3729,1,5987,6012,6009,5984,5988,6013,+A3729
+A3729,6011,5986
CHEXA,3730,1,5989,6014,6012,5987,5990,6015,+A3730
+A3730,6013,5988
CHEXA,3731,1,5991,6016,6014,5989,5992,6017,+A3731
+A3731,6015,5990
CHEXA,3732,1,5993,6018,6016,5991,5994,6019,+A3732
+A3732,6017,5992
CHEXA,3733,1,5995,6020,6018,5993,5996,6021,+A3733
+A3733,6019,5994
CHEXA,3734,1,5997,6022,6020,5995,5998,6023,+A3734
+A3734,6021,5996
CHEXA,3735,1,5999,6024,6022,5997,6000,6025,+A3735
+A3735,6023,5998
CHEXA,3736,1,6001,6026,6024,5999,6002,6027,+A3736
+A3736,6025,6000
CHEXA,3737,1,6003,6028,6026,6001,6004,6029,+A3737
+A3737,6027,6002
CHEXA,3738,1,6005,6030,6028,6003,6006,6031,+A3738
+A3738,6029,6004
CPENTA,3739,2,6007,6030,6005,6008,6031,6006
CHEXA,3740,1,6009,6032,6033,6010,6011,6034,+A3740
+A3740,5629,5624
CHEXA,3741,1,6012,6035,6032,6009,6013,6036,+A3741
+A3741,6034,6011
CHEXA,3742,1,6014,6037,6035,6012,6015,6038,+A3742
+A3742,6036,6013
CHEXA,3743,1,6016,6039,6037,6014,6017,6040,+A3743
+A3743,6038,6015
CHEXA,3744,1,6018,6041,6039,6016,6019,6042,+A3744
+A3744,6040,6017
CHEXA,3745,1,6020,6043,6041,6018,6021,6044,+A3745
+A3745,6042,6019
CHEXA,3746,1,6022,6045,6043,6020,6023,6046,+A3746
+A3746,6044,6021
CHEXA,3747,1,6024,6047,6045,6022,6025,6048,+A3747
+A3747,6046,6023
CHEXA,3748,1,6026,6049,6047,6024,6027,6050,+A3748
+A3748,6048,6025
CHEXA,3749,1,6028,6051,6049,6026,6029,6052,+A3749
+A3749,6050,6027
CPENTA,3750,2,6030,6051,6028,6031,6052,6029
CHEXA,3751,1,6032,6053,6054,6033,6034,6055,+A3751
+A3751,5634,5629
CHEXA,3752,1,6035,6056,6053,6032,6036,6057,+A3752
+A3752,6055,6034
CHEXA,3753,1,6037,6058,6056,6035,6038,6059,+A3753
+A3753,6057,6036
CHEXA,3754,1,6039,6060,6058,6037,6040,6061,+A3754
+A3754,6059,6038
CHEXA,3755,1,6041,6062,6060,6039,6042,6063,+A3755
+A3755,6061,6040
CHEXA,3756,1,6043,6064,6062,6041,6044,6065,+A3756
+A3756,6063,6042
CHEXA,3757,1,6045,6066,6064,6043,6046,6067,+A3757
+A3757,6065,6044
CHEXA,3758,1,6047,6068,6066,6045,6048,6069,+A3758
+A3758,6067,6046
CHEXA,3759,1,6049,6070,6068,6047,6050,6071,+A3759
+A3759,6069,6048
CPENTA,3760,2,6051,6070,6049,6052,6071,6050
CHEXA,3761,1,6053,6072,6073,6054,6055,6074,+A3761
+A3761,5639,5634
CHEXA,3762,1,6056,6075,6072,6053,6057,6076,+A3762
+A3762,6074,6055
CHEXA,3763,1,6058,6077,6075,6056,6059,6078,+A3763
+A3763,6076,6057
CHEXA,3764,1,6060,6079,6077,6058,6061,6080,+A3764
+A3764,6078,6059
CHEXA,3765,1,6062,6081,6079,6060,6063,6082,+A3765
+A3765,6080,6061
CHEXA,3766,1,6064,6083,6081,6062,6065,6084,+A3766
+A3766,6082,6063
CHEXA,3767,1,6066,6085,6083,6064,6067,6086,+A3767
+A3767,6084,6065
CHEXA,3768,1,6068,6087,6085,6066,6069,6088,+A3768
+A3768,6086,6067
CPENTA,3769,2,6070,6087,6068,6071,6088,6069
CHEXA,3770,1,6072,6089,6090,6073,6074,6091,+A3770
+A3770,5644,5639
CHEXA,3771,1,6075,6092,6089,6072,6076,6093,+A3771
+A3771,6091,6074
CHEXA,3772,1,6077,6094,6092,6075,6078,6095,+A3772
+A3772,6093,6076
CHEXA,3773,1,6079,6096,6094,6077,6080,6097,+A3773
+A3773,6095,6078
CHEXA,3774,1,6081,6098,6096,6079,6082,6099,+A3774
+A3774,6097,6080
CHEXA,3775,1,6083,6100,6098,6081,6084,6101,+A3775
+A3775,6099,6082
CHEXA,3776,1,6085,6102,6100,6083,6086,6103,+A3776
+A3776,6101,6084
CPENTA,3777,2,6087,6102,6085,6088,6103,6086
CHEXA,3778,1,6089,6104,6105,6090,6091,6106,+A3778
+A3778,5649,5644
CHEXA,3779,1,6092,6107,6104,6089,6093,6108,+A3779
+A3779,6106,6091
CHEXA,3780,1,6094,6109,6107,6092,6095,6110,+A3780
+A3780,6108,6093
CHEXA,3781,1,6096,6111,6109,6094,6097,6112,+A3781
+A3781,6110,6095
CHEXA,3782,1,6098,6113,6111,6096,6099,6114,+A3782
+A3782,6112,6097
CHEXA,3783,1,6100,6115,6113,6098,6101,6116,+A3783
+A3783,6114,6099
CPENTA,3784,2,6102,6115,6100,6103,6116,6101
CHEXA,3785,1,6104,6117,6118,6105,6106,6119,+A3785
+A3785,5654,5649
CHEXA,3786,1,6107,6120,6117,6104,6108,6121,+A3786
+A3786,6119,6106
CHEXA,3787,1,6109,6122,6120,6107,6110,6123,+A3787
+A3787,6121,6108
CHEXA,3788,1,6111,6124,6122,6109,6112,6125,+A3788
+A3788,6123,6110
CHEXA,3789,1,6113,6126,6124,6111,6114,6127,+A3789
+A3789,6125,6112
CPENTA,3790,2,6115,6126,6113,6116,6127,6114
CHEXA,3791,1,6117,6128,6129,6118,6119,6130,+A3791
+A3791,5659,5654
CHEXA,3792,1,6120,6131,6128,6117,6121,6132,+A3792
+A3792,6130,6119
CHEXA,3793,1,6122,6133,6131,6120,6123,6134,+A3793
+A3793,6132,6121
CHEXA,3794,1,6124,6135,6133,6122,6125,6136,+A3794
+A3794,6134,6123
CPENTA,3795,2,6126,6135,6124,6127,6136,6125
CHEXA,3796,1,6128,6137,6138,6129,6130,6139,+A3796
+A3796,5664,5659
CHEXA,3797,1,6131,6140,6137,6128,6132,6141,+A3797
+A3797,6139,6130
CHEXA,3798,1,6133,6142,6140,6131,6134,6143,+A3798
+A3798,6141,6132
CPENTA,3799,2,6135,6142,6133,6136,6143,6134
CHEXA,3800,1,6137,6144,6145,6138,6139,6146,+A3800
+A3800,5669,5664
CHEXA,3801,1,6140,6147,6144,6137,6141,6148,+A3801
+A3801,6146,6139
CPENTA,3802,2,6142,6147,6140,6143,6148,6141
CHEXA,3803,1,6144,6149,6150,6145,6146,6151,+A3803
+A3803,5675,5669
CPENTA,3804,2,6147,6149,6144,6148,6151,6146
CPENTA,3805,2,6149,5086,6150,6151,5040,5675
CHEXA,3806,1,6152,6153,6154,6155,5928,5929,+A3806
+A3806,5930,5931
CHEXA,3807,1,6156,6157,6153,6152,5934,5935,+A3807
+A3807,5929,5928
CHEXA,3808,1,6158,6159,6157,6156,5938,5939,+A3808
+A3808,5935,5934
CHEXA,3809,1,6160,6161,6159,6158,5942,5943,+A3809
+A3809,5939,5938
CHEXA,3810,1,6162,6163,6161,6160,5946,5947,+A3810
+A3810,5943,5942
CHEXA,3811,1,6164,6165,6163,6162,5950,5951,+A3811
+A3811,5947,5946
CHEXA,3812,1,6166,6167,6165,6164,5954,5955,+A3812
+A3812,5951,5950
CHEXA,3813,1,6168,6169,6167,6166,5958,5959,+A3813
+A3813,5955,5954
CHEXA,3814,1,6170,6171,6169,6168,5962,5963,+A3814
+A3814,5959,5958
CHEXA,3815,1,6172,6173,6171,6170,5966,5967,+A3815
+A3815,5963,5962
CHEXA,3816,1,6174,6175,6173,6172,5970,5971,+A3816
+A3816,5967,5966
CHEXA,3817,1,6176,6177,6175,6174,5974,5975,+A3817
+A3817,5971,5970
CHEXA,3818,1,6178,6179,6177,6176,5978,5979,+A3818
+A3818,5975,5974
CPENTA,3819,2,6180,6179,6178,5982,5979,5978
CHEXA,3820,1,6153,6181,6182,6154,5929,5984,+A3820
+A3820,5985,5930
CHEXA,3821,1,6157,6183,6181,6153,5935,5987,+A3821
+A3821,5984,5929
CHEXA,3822,1,6159,6184,6183,6157,5939,5989,+A3822
+A3822,5987,5935
CHEXA,3823,1,6161,6185,6184,6159,5943,5991,+A3823
+A3823,5989,5939
CHEXA,3824,1,6163,6186,6185,6161,5947,5993,+A3824
+A3824,5991,5943
CHEXA,3825,1,6165,6187,6186,6163,5951,5995,+A3825
+A3825,5993,5947
CHEXA,3826,1,6167,6188,6187,6165,5955,5997,+A3826
+A3826,5995,5951
CHEXA,3827,1,6169,6189,6188,6167,5959,5999,+A3827
+A3827,5997,5955
CHEXA,3828,1,6171,6190,6189,6169,5963,6001,+A3828
+A3828,5999,5959
CHEXA,3829,1,6173,6191,6190,6171,5967,6003,+A3829
+A3829,6001,5963
CHEXA,3830,1,6175,6192,6191,6173,5971,6005,+A3830
+A3830,6003,5967
CHEXA,3831,1,6177,6193,6192,6175,5975,6007,+A3831
+A3831,6005,5971
CPENTA,3832,2,6179,6193,6177,5979,6007,5975
CHEXA,3833,1,6181,6194,6195,6182,5984,6009,+A3833
+A3833,6010,5985
CHEXA,3834,1,6183,6196,6194,6181,5987,6012,+A3834
+A3834,6009,5984
CHEXA,3835,1,6184,6197,6196,6183,5989,6014,+A3835
+A3835,6012,5987
CHEXA,3836,1,6185,6198,6197,6184,5991,6016,+A3836
+A3836,6014,5989
CHEXA,3837,1,6186,6199,6198,6185,5993,6018,+A3837
+A3837,6016,5991
CHEXA,3838,1,6187,6200,6199,6186,5995,6020,+A3838
+A3838,6018,5993
CHEXA,3839,1,6188,6201,6200,6187,5997,6022,+A3839
+A3839,6020,5995
CHEXA,3840,1,6189,6202,6201,6188,5999,6024,+A3840
+A3840,6022,5997
CHEXA,3841,1,6190,6203,6202,6189,6001,6026,+A3841
+A3841,6024,5999
CHEXA,3842,1,6191,6204,6203,6190,6003,6028,+A3842
+A3842,6026,6001
CHEXA,3843,1,6192,6205,6204,6191,6005,6030,+A3843
+A3843,6028,6003
CPENTA,3844,2,6193,6205,6192,6007,6030,6005
CHEXA,3845,1,6194,6206,6207,6195,6009,6032,+A3845
+A3845,6033,6010
CHEXA,3846,1,6196,6208,6206,6194,6012,6035,+A3846
+A3846,6032,6009
CHEXA,3847,1,6197,6209,6208,6196,6014,6037,+A3847
+A3847,6035,6012
CHEXA,3848,1,6198,6210,6209,6197,6016,6039,+A3848
+A3848,6037,6014
CHEXA,3849,1,6199,6211,6210,6198,6018,6041,+A3849
+A3849,6039,6016
CHEXA,3850,1,6200,6212,6211,6199,6020,6043,+A3850
+A3850,6041,6018
CHEXA,3851,1,6201,6213,6212,6200,6022,6045,+A3851
+A3851,6043,6020
CHEXA,3852,1,6202,6214,6213,6201,6024,6047,+A3852
+A3852,6045,6022
CHEXA,3853,1,6203,6215,6214,6202,6026,6049,+A3853
+A3853,6047,6024
CHEXA,3854,1,6204,6216,6215,6203,6028,6051,+A3854
+A3854,6049,6026
CPENTA,3855,2,6205,6216,6204,6030,6051,6028
CHEXA,3856,1,6206,6217,6218,6207,6032,6053,+A3856
+A3856,6054,6033
CHEXA,3857,1,6208,6219,6217,6206,6035,6056,+A3857
+A3857,6053,6032
CHEXA,3858,1,6209,6220,6219,6208,6037,6058,+A3858
+A3858,6056,6035
CHEXA,3859,1,6210,6221,6220,6209,6039,6060,+A3859
+A3859,6058,6037
CHEXA,3860,1,6211,6222,6221,6210,6041,6062,+A3860
+A3860,6060,6039
CHEXA,3861,1,6212,6223,6222,6211,6043,6064,+A3861
+A3861,6062,6041
CHEXA,3862,1,6213,6224,6223,6212,6045,6066,+A3862
+A3862,6064,6043
CHEXA,3863,1,6214,6225,6224,6213,6047,6068,+A3863
+A3863,6066,6045
CHEXA,3864,1,6215,6226,6225,6214,6049,6070,+A3864
+A3864,6068,6047
CPENTA,3865,2,6216,6226,6215,6051,6070,6049
CHEXA,3866,1,6217,6227,6228,6218,6053,6072,+A3866
+A3866,6073,6054
CHEXA,3867,1,6219,6229,6227,6217,6056,6075,+A3867
+A3867,6072,6053
CHEXA,3868,1,6220,6230,6229,6219,6058,6077,+A3868
+A3868,6075,6056
CHEXA,3869,1,6221,6231,6230,6220,6060,6079,+A3869
+A3869,6077,6058
CHEXA,3870,1,6222,6232,6231,6221,6062,6081,+A3870
+A3870,6079,6060
CHEXA,3871,1,6223,6233,6232,6222,6064,6083,+A3871
+A3871,6081,6062
CHEXA,3872,1,6224,6234,6233,6223,6066,6085,+A3872
+A3872,6083,6064
CHEXA,3873,1,6225,6235,6234,6224,6068,6087,+A3873
+A3873,6085,6066
CPENTA,3874,2,6226,6235,6225,6070,6087,6068
CHEXA,3875,1,6227,6236,6237,6228,6072,6089,+A3875
+A3875,6090,6073
CHEXA,3876,1,6229,6238,6236,6227,6075,6092,+A3876
+A3876,6089,6072
CHEXA,3877,1,6230,6239,6238,6229,6077,6094,+A3877
+A3877,6092,6075
CHEXA,3878,1,6231,6240,6239,6230,6079,6096,+A3878
+A3878,6094,6077
CHEXA,3879,1,6232,6241,6240,6231,6081,6098,+A3879
+A3879,6096,6079
CHEXA,3880,1,6233,6242,6241,6232,6083,6100,+A3880
+A3880,6098,6081
CHEXA,3881,1,6234,6243,6242,6233,6085,6102,+A3881
+A3881,6100,6083
CPENTA,3882,2,6235,6243,6234,6087,6102,6085
CHEXA,3883,1,6236,6244,6245,6237,6089,6104,+A3883
+A3883,6105,6090
CHEXA,3884,1,6238,6246,6244,6236,6092,6107,+A3884
+A3884,6104,6089
CHEXA,3885,1,6239,6247,6246,6238,6094,6109,+A3885
+A3885,6107,6092
CHEXA,3886,1,6240,6248,6247,6239,6096,6111,+A3886
+A3886,6109,6094
CHEXA,3887,1,6241,6249,6248,6240,6098,6113,+A3887
+A3887,6111,6096
CHEXA,3888,1,6242,6250,6249,6241,6100,6115,+A3888
+A3888,6113,6098
CPENTA,3889,2,6243,6250,6242,6102,6115,6100
CHEXA,3890,1,6244,6251,6252,6245,6104,6117,+A3890
+A3890,6118,6105
CHEXA,3891,1,6246,6253,6251,6244,6107,6120,+A3891
+A3891,6117,6104
CHEXA,3892,1,6247,6254,6253,6246,6109,6122,+A3892
+A3892,6120,6107
CHEXA,3893,1,6248,6255,6254,6247,6111,6124,+A3893
+A3893,6122,6109
CHEXA,3894,1,6249,6256,6255,6248,6113,6126,+A3894
+A3894,6124,6111
CPENTA,3895,2,6250,6256,6249,6115,6126,6113
CHEXA,3896,1,6251,6257,6258,6252,6117,6128,+A3896
+A3896,6129,6118
CHEXA,3897,1,6253,6259,6257,6251,6120,6131,+A3897
+A3897,6128,6117
CHEXA,3898,1,6254,6260,6259,6253,6122,6133,+A3898
+A3898,6131,6120
CHEXA,3899,1,6255,6261,6260,6254,6124,6135,+A3899
+A3899,6133,6122
CPENTA,3900,2,6256,6261,6255,6126,6135,6124
CHEXA,3901,1,6257,6262,6263,6258,6128,6137,+A3901
+A3901,6138,6129
CHEXA,3902,1,6259,6264,6262,6257,6131,6140,+A3902
+A3902,6137,6128
CHEXA,3903,1,6260,6265,6264,6259,6133,6142,+A3903
+A3903,6140,6131
CPENTA,3904,2,6261,6265,6260,6135,6142,6133
CHEXA,3905,1,6262,6266,6267,6263,6137,6144,+A3905
+A3905,6145,6138
CHEXA,3906,1,6264,6268,6266,6262,6140,6147,+A3906
+A3906,6144,6137
CPENTA,3907,2,6265,6268,6264,6142,6147,6140
CHEXA,3908,1,6266,6269,6270,6267,6144,6149,+A3908
+A3908,6150,6145
CPENTA,3909,2,6268,6269,6266,6147,6149,6144
CPENTA,3910,2,6269,5088,6270,6149,5086,6150
CHEXA,3911,1,6271,6272,6273,6274,6275,6276,+A3911
+A3911,6277,6278
CHEXA,3912,1,6279,6271,6274,6280,6281,6275,+A3912
+A3912,6278,6282
CHEXA,3913,1,6283,6279,6280,6284,6285,6281,+A3913
+A3913,6282,6286
CHEXA,3914,1,6287,6283,6284,6288,6289,6285,+A3914
+A3914,6286,6290
CHEXA,3915,1,6291,6287,6288,6292,6293,6289,+A3915
+A3915,6290,6294
CHEXA,3916,1,6295,6291,6292,6296,6297,6293,+A3916
+A3916,6294,6298
CHEXA,3917,1,6299,6295,6296,6300,6301,6297,+A3917
+A3917,6298,6302
CHEXA,3918,1,6303,6299,6300,6304,6305,6301,+A3918
+A3918,6302,6306
CHEXA,3919,1,6307,6303,6304,6308,6309,6305,+A3919
+A3919,6306,6310
CHEXA,3920,1,6311,6307,6308,6312,6313,6309,+A3920
+A3920,6310,6314
CHEXA,3921,1,6315,6311,6312,6316,6317,6313,+A3921
+A3921,6314,6318
CHEXA,3922,1,6319,6315,6316,6320,6321,6317,+A3922
+A3922,6318,6322
CHEXA,3923,1,6323,6319,6320,6324,6325,6321,+A3923
+A3923,6322,6326
CHEXA,3924,1,5758,6323,6324,5759,6327,6325,+A3924
+A3924,6326,6328
CHEXA,3925,1,6329,6330,6272,6271,6331,6332,+A3925
+A3925,6276,6275
CHEXA,3926,1,6333,6329,6271,6279,6334,6331,+A3926
+A3926,6275,6281
CHEXA,3927,1,6335,6333,6279,6283,6336,6334,+A3927
+A3927,6281,6285
CHEXA,3928,1,6337,6335,6283,6287,6338,6336,+A3928
+A3928,6285,6289
CHEXA,3929,1,6339,6337,6287,6291,6340,6338,+A3929
+A3929,6289,6293
CHEXA,3930,1,6341,6339,6291,6295,6342,6340,+A3930
+A3930,6293,6297
$ ... 306 like lines cut
CPENTA,4084,2,5982,6561,6419,6180,6550,6521
CHEXA,4085,1,6556,6562,6563,6557,6554,6548,+A4085
+A4085,6549,6555
CHEXA,4086,1,6558,6564,6562,6556,6553,6547,+A4086
+A4086,6548,6554
CHEXA,4087,1,6559,6565,6564,6558,6552,6546,+A4087
+A4087,6547,6553
CHEXA,4088,1,6560,6566,6565,6559,6551,6545,+A4088
+A4088,6546,6552
CPENTA,4089,2,6561,6566,6560,6550,6545,6551
CHEXA,4090,1,6562,6567,6568,6563,6548,6543,+A4090
+A4090,6544,6549
CHEXA,4091,1,6564,6569,6567,6562,6547,6542,+A4091
+A4091,6543,6548
CHEXA,4092,1,6565,6570,6569,6564,6546,6541,+A4092
+A4092,6542,6547
CPENTA,4093,2,6566,6570,6565,6545,6541,6546
CHEXA,4094,1,6567,6571,6572,6568,6543,6539,+A4094
+A4094,6540,6544
CHEXA,4095,1,6569,6573,6571,6567,6542,6538,+A4095
+A4095,6539,6543
CPENTA,4096,2,6570,6573,6569,6541,6538,6542
CHEXA,4097,1,6571,6574,6575,6572,6539,6535,+A4097
+A4097,6537,6540
CPENTA,4098,2,6573,6574,6571,6538,6535,6539
CPENTA,4099,2,6574,6576,6575,6535,6536,6537
CHEXA,4100,1,6272,6577,6578,6273,6276,6556,+A4100
+A4100,6557,6277
CHEXA,4101,1,6330,6579,6577,6272,6332,6558,+A4101
+A4101,6556,6276
CHEXA,4102,1,6359,6580,6579,6330,6361,6559,+A4102
+A4102,6558,6332
CHEXA,4103,1,6388,6581,6580,6359,6390,6560,+A4103
+A4103,6559,6361
CHEXA,4104,1,6417,6582,6581,6388,6419,6561,+A4104
+A4104,6560,6390
CPENTA,4105,2,5983,6582,6417,5982,6561,6419
CHEXA,4106,1,6577,6583,6584,6578,6556,6562,+A4106
+A4106,6563,6557
CHEXA,4107,1,6579,6585,6583,6577,6558,6564,+A4107
+A4107,6562,6556
CHEXA,4108,1,6580,6586,6585,6579,6559,6565,+A4108
+A4108,6564,6558
CHEXA,4109,1,6581,6587,6586,6580,6560,6566,+A4109
+A4109,6565,6559
CPENTA,4110,2,6582,6587,6581,6561,6566,6560
CHEXA,4111,1,6583,6588,6589,6584,6562,6567,+A4111
+A4111,6568,6563
CHEXA,4112,1,6585,6590,6588,6583,6564,6569,+A4112
+A4112,6567,6562
CHEXA,4113,1,6586,6591,6590,6585,6565,6570,+A4113
+A4113,6569,6564
CPENTA,4114,2,6587,6591,6586,6566,6570,6565
CHEXA,4115,1,6588,6592,6593,6589,6567,6571,+A4115
+A4115,6572,6568
CHEXA,4116,1,6590,6594,6592,6588,6569,6573,+A4116
+A4116,6571,6567
CPENTA,4117,2,6591,6594,6590,6570,6573,6569
CHEXA,4118,1,6592,6595,6596,6593,6571,6574,+A4118
+A4118,6575,6572
CPENTA,4119,2,6594,6595,6592,6573,6574,6571
CPENTA,4120,2,6595,6597,6596,6574,6576,6575
CHEXA,4121,1,5481,5613,5614,5482,6598,5930,+A4121
+A4121,5931,6599
CHEXA,4122,1,5479,5481,5482,5480,6600,6598,+A4122
+A4122,6599,6601
CHEXA,4123,1,5492,5619,5613,5481,6602,5985,+A4123
+A4123,5930,6598
CHEXA,4124,1,5491,5492,5481,5479,6603,6602,+A4124
+A4124,6598,6600
CHEXA,4125,1,5502,5624,5619,5492,6604,6010,+A4125
+A4125,5985,6602
CHEXA,4126,1,5501,5502,5492,5491,6605,6604,+A4126
+A4126,6602,6603
CHEXA,4127,1,5512,5629,5624,5502,6606,6033,+A4127
+A4127,6010,6604
CHEXA,4128,1,5511,5512,5502,5501,6607,6606,+A4128
+A4128,6604,6605
CHEXA,4129,1,5522,5634,5629,5512,6608,6054,+A4129
+A4129,6033,6606
CHEXA,4130,1,5521,5522,5512,5511,6609,6608,+A4130
+A4130,6606,6607
CHEXA,4131,1,5532,5639,5634,5522,6610,6073,+A4131
+A4131,6054,6608
CHEXA,4132,1,5531,5532,5522,5521,6611,6610,+A4132
+A4132,6608,6609
CHEXA,4133,1,5542,5644,5639,5532,6612,6090,+A4133
+A4133,6073,6610
CHEXA,4134,1,5541,5542,5532,5531,6613,6612,+A4134
+A4134,6610,6611
CHEXA,4135,1,5552,5649,5644,5542,6614,6105,+A4135
+A4135,6090,6612
CHEXA,4136,1,5551,5552,5542,5541,6615,6614,+A4136
+A4136,6612,6613
CHEXA,4137,1,5562,5654,5649,5552,6616,6118,+A4137
+A4137,6105,6614
CHEXA,4138,1,5561,5562,5552,5551,6617,6616,+A4138
+A4138,6614,6615
CHEXA,4139,1,5572,5659,5654,5562,6618,6129,+A4139
+A4139,6118,6616
CHEXA,4140,1,5571,5572,5562,5561,6619,6618,+A4140
+A4140,6616,6617
$ ... 1860 like lines cut
CPENTA,5071,2,5308,7947,5854,5114,7948,5855
CHEXA,5072,1,7935,7949,7950,7936,7937,7951,+A5072
+A5072,7952,7938
CHEXA,5073,1,7939,7953,7949,7935,7940,7954,+A5073
+A5073,7951,7937
CHEXA,5074,1,7941,7955,7953,7939,7942,7956,+A5074
+A5074,7954,7940
CHEXA,5075,1,7943,7957,7955,7941,7944,7958,+A5075
+A5075,7956,7942
CHEXA,5076,1,7945,7959,7957,7943,7946,7960,+A5076
+A5076,7958,7944
CPENTA,5077,2,7947,7959,7945,7948,7960,7946
CHEXA,5078,1,7949,7961,7962,7950,7951,7963,+A5078
+A5078,7964,7952
CHEXA,5079,1,7953,7965,7961,7949,7954,7966,+A5079
+A5079,7963,7951
CHEXA,5080,1,7955,7967,7965,7953,7956,7968,+A5080
+A5080,7966,7954
CHEXA,5081,1,7957,7969,7967,7955,7958,7970,+A5081
+A5081,7968,7956
CPENTA,5082,2,7959,7969,7957,7960,7970,7958
CHEXA,5083,1,7961,7971,7972,7962,7963,7973,+A5083
+A5083,7974,7964
CHEXA,5084,1,7965,7975,7971,7961,7966,7976,+A5084
+A5084,7973,7963
CHEXA,5085,1,7967,7977,7975,7965,7968,7978,+A5085
+A5085,7976,7966
CPENTA,5086,2,7969,7977,7967,7970,7978,7968
CHEXA,5087,1,7971,7979,7980,7972,7973,7981,+A5087
+A5087,7982,7974
CHEXA,5088,1,7975,7983,7979,7971,7976,7984,+A5088
+A5088,7981,7973
CPENTA,5089,2,7977,7983,7975,7978,7984,7976
CHEXA,5090,1,7979,7985,7986,7980,7981,7987,+A5090
+A5090,7988,7982
CPENTA,5091,2,7983,7985,7979,7984,7987,7981
CPENTA,5092,2,7985,7989,7986,7987,7990,7988
CHEXA,5093,1,5789,7991,7992,6859,5828,7935,+A5093
+A5093,7936,6858
CHEXA,5094,1,5791,7993,7991,5789,5830,7939,+A5094
+A5094,7935,5828
CHEXA,5095,1,5799,7994,7993,5791,5836,7941,+A5095
+A5095,7939,5830
CHEXA,5096,1,5805,7995,7994,5799,5842,7943,+A5096
+A5096,7941,5836
CHEXA,5097,1,5811,7996,7995,5805,5848,7945,+A5097
+A5097,7943,5842
CHEXA,5098,1,5817,7997,7996,5811,5854,7947,+A5098
+A5098,7945,5848
CPENTA,5099,2,5312,7997,5817,5308,7947,5854
CHEXA,5100,1,7991,7998,7999,7992,7935,7949,+A5100
+A5100,7950,7936
CHEXA,5101,1,7993,8000,7998,7991,7939,7953,+A5101
+A5101,7949,7935
CHEXA,5102,1,7994,8001,8000,7993,7941,7955,+A5102
+A5102,7953,7939
CHEXA,5103,1,7995,8002,8001,7994,7943,7957,+A5103
+A5103,7955,7941
CHEXA,5104,1,7996,8003,8002,7995,7945,7959,+A5104
+A5104,7957,7943
CPENTA,5105,2,7997,8003,7996,7947,7959,7945
CHEXA,5106,1,7998,8004,8005,7999,7949,7961,+A5106
+A5106,7962,7950
CHEXA,5107,1,8000,8006,8004,7998,7953,7965,+A5107
+A5107,7961,7949
CHEXA,5108,1,8001,8007,8006,8000,7955,7967,+A5108
+A5108,7965,7953
CHEXA,5109,1,8002,8008,8007,8001,7957,7969,+A5109
+A5109,7967,7955
CPENTA,5110,2,8003,8008,8002,7959,7969,7957
CHEXA,5111,1,8004,8009,8010,8005,7961,7971,+A5111
+A5111,7972,7962
CHEXA,5112,1,8006,8011,8009,8004,7965,7975,+A5112
+A5112,7971,7961
CHEXA,5113,1,8007,8012,8011,8006,7967,7977,+A5113
+A5113,7975,7965
CPENTA,5114,2,8008,8012,8007,7969,7977,7967
CHEXA,5115,1,8009,8013,8014,8010,7971,7979,+A5115
+A5115,7980,7972
CHEXA,5116,1,8011,8015,8013,8009,7975,7983,+A5116
+A5116,7979,7971
CPENTA,5117,2,8012,8015,8011,7977,7983,7975
CHEXA,5118,1,8013,8016,8017,8014,7979,7985,+A5118
+A5118,7986,7980
CPENTA,5119,2,8015,8016,8013,7983,7985,7979
CPENTA,5120,2,8016,8018,8017,7985,7989,7986
CHEXA,5121,1,6858,6859,6860,6861,7936,7992,+A5121
+A5121,8019,8020
CHEXA,5122,1,6862,6858,6861,6863,7938,7936,+A5122
+A5122,8020,8021
CHEXA,5123,1,7936,7992,8019,8020,7950,7999,+A5123
+A5123,8022,8023
CHEXA,5124,1,7938,7936,8020,8021,7952,7950,+A5124
+A5124,8023,8024
CHEXA,5125,1,7950,7999,8022,8023,7962,8005,+A5125
+A5125,8025,8026
CHEXA,5126,1,7952,7950,8023,8024,7964,7962,+A5126
+A5126,8026,8027
CHEXA,5127,1,7962,8005,8025,8026,7972,8010,+A5127
+A5127,8028,8029
CHEXA,5128,1,7964,7962,8026,8027,7974,7972,+A5128
+A5128,8029,8030
CHEXA,5129,1,7972,8010,8028,8029,7980,8014,+A5129
+A5129,8031,8032
CHEXA,5130,1,7974,7972,8029,8030,7982,7980,+A5130
+A5130,8032,8033
CHEXA,5131,1,7980,8014,8031,8032,7986,8017,+A5131
+A5131,8034,8035
CHEXA,5132,1,7982,7980,8032,8033,7988,7986,+A5132
+A5132,8035,8036
CHEXA,5133,1,7986,8017,8034,8035,7989,8018,+A5133
+A5133,8037,8038
CHEXA,5134,1,7988,7986,8035,8036,7990,7989,+A5134
+A5134,8038,8039
CPENTA,5135,2,7990,8039,8040,7989,8038,8041
CPENTA,5136,2,7989,8038,8041,8018,8037,8042
CPENTA,5137,2,8043,4071,4066,8044,8045,8046
CPENTA,5138,2,8044,8045,8046,8047,8048,8049
CPENTA,5139,2,8047,8048,8049,8050,8051,8052
CPENTA,5140,2,8050,8051,8052,8053,8054,8055
CPENTA,5141,2,8053,8054,8055,8039,8040,7990
CHEXA,5142,1,8056,8044,8043,8057,8058,8046,+A5142
+A5142,4066,8059
CHEXA,5143,1,8060,8056,8057,8061,8062,8058,+A5143
+A5143,8059,8063
CHEXA,5144,1,8064,8060,8061,8065,8066,8062,+A5144
+A5144,8063,4080
CHEXA,5145,1,8067,8047,8044,8056,8068,8049,+A5145
+A5145,8046,8058
CHEXA,5146,1,8069,8067,8056,8060,8070,8068,+A5146
+A5146,8058,8062
CHEXA,5147,1,8071,8069,8060,8064,8072,8070,+A5147
+A5147,8062,8066
CHEXA,5148,1,8073,8050,8047,8067,8074,8052,+A5148
+A5148,8049,8068
CHEXA,5149,1,8075,8073,8067,8069,8076,8074,+A5149
+A5149,8068,8070
CHEXA,5150,1,8077,8075,8069,8071,8078,8076,+A5150
+A5150,8070,8072
CHEXA,5151,1,8079,8053,8050,8073,8080,8055,+A5151
+A5151,8052,8074
CHEXA,5152,1,8081,8079,8073,8075,8082,8080,+A5152
+A5152,8074,8076
CHEXA,5153,1,8083,8081,8075,8077,8084,8082,+A5153
+A5153,8076,8078
CHEXA,5154,1,8085,8039,8053,8079,8086,7990,+A5154
+A5154,8055,8080
CHEXA,5155,1,8087,8085,8079,8081,8088,8086,+A5155
+A5155,8080,8082
CHEXA,5156,1,8089,8087,8081,8083,8090,8088,+A5156
+A5156,8082,8084
CHEXA,5157,1,8091,8036,8039,8085,8092,7988,+A5157
+A5157,7990,8086
CHEXA,5158,1,8093,8091,8085,8087,8094,8092,+A5158
+A5158,8086,8088
CHEXA,5159,1,8095,8093,8087,8089,8096,8094,+A5159
+A5159,8088,8090
CHEXA,5160,1,8097,8033,8036,8091,8098,7982,+A5160
+A5160,7988,8092
CHEXA,5161,1,8099,8097,8091,8093,8100,8098,+A5161
+A5161,8092,8094
$ ... 62 like lines cut
PSOLID,2,3,0
PSOLID,1,3,0
