EIGR    10      SINV    0.      50.
MAT1    1       7.1+10          0.33    2.65+4
PARAM   WTMASS  0.102
PBAR    1       1       6.158-4 2.9-8   3.1-8   6.-8    2.414
CBAR    1       1       1       2       0.      1.      0.                      
CBAR    2       1       2       3       0.      1.      0.                      
CBAR    3       1       3       4       0.      1.      0.                      
CBAR    4       1       4       5       0.      1.      0.                      
CBAR    5       1       5       6       0.      1.      0.                      
CBAR    6       1       6       7       0.      1.      0.                      
CBAR    7       1       7       8       0.      1.      0.                      
CBAR    8       1       8       9       0.      1.      0.                      
CBAR    9       1       9       10      0.      1.      0.                      
CBAR    10      1       10      11      0.      1.      0.                      
GRID    1               0.0     0.      0.                                      
GRID    2               0.3     0.      0.                                      
GRID    3               0.6     0.      0.                                      
GRID    4               0.9     0.      0.                                      
GRID    5               1.2     0.      0.                                      
GRID    6               1.5     0.      0.                                      
GRID    7               1.8     0.      0.                                      
GRID    8               2.1     0.      0.                                      
GRID    9               2.4     0.      0.                                      
GRID    10              2.7     0.      0.                                      
GRID    11              3.0     0.      0.                                      
SPC1    1       123456  1                                                       
