GRID    1                0.0     0.0     0.0
GRID    2                .211491 .7893   0.0
GRID    3                .422983 1.5786  0.0
GRID    4                .634474 2.3679  0.0
GRID    5                .845966 3.1572  0.0
GRID    6                1.05746 3.9465  0.0
GRID    7                1.26895 4.7358  0.0
GRID    8                1.48044 5.5251  0.0
GRID    9                .258819 0.0     0.0
GRID    10               .47031  .7893   0.0
GRID    11               .681802 1.5786  0.0
GRID    12               .893293 2.3679  0.0
GRID    13               1.10478 3.1572  0.0
GRID    14               1.31628 3.9465  0.0
GRID    15               1.52777 4.7358  0.0
GRID    16               1.73926 5.5251  0.0
GRID    17               1.03528 0.0     0.0
GRID    18               1.24677 .7893   0.0
GRID    19               1.45826 1.5786  0.0
GRID    20               1.66975 2.3679  0.0
$ ... 20 like lines cut
CQUAD4  1       1       1       2       10      9                       +M00000
+M00000                  0.0     0.0     .041    .041
CQUAD4  2       1       2       3       11      10                      +M00001
+M00001                  0.0     0.0     .041    .041
CQUAD4  3       1       3       4       12      11                      +M00002
+M00002                  0.0     0.0     .041    .041
CQUAD4  4       1       4       5       13      12                      +M00003
+M00003                  0.0     0.0     .041    .041
CQUAD4  5       1       5       6       14      13                      +M00004
+M00004                  0.0     0.0     .041    .041
CQUAD4  6       1       6       7       15      14                      +M00005
+M00005                  0.0     0.0     .041    .041
CQUAD4  7       1       7       8       16      15                      +M00006
+M00006                  0.0     0.0     .041    .041
CQUAD4  8       1       9       10      18      17
CQUAD4  9       1       10      11      19      18
CQUAD4  10      1       11      12      20      19
CQUAD4  11      1       12      13      21      20
CQUAD4  12      1       13      14      22      21
CQUAD4  13      1       14      15      23      22
CQUAD4  14      1       15      16      24      23
CQUAD4  15      1       17      18      26      25
CQUAD4  16      1       18      19      27      26
CQUAD4  17      1       19      20      28      27
CQUAD4  18      1       20      21      29      28
CQUAD4  19      1       21      22      30      29
CQUAD4  20      1       22      23      31      30
CQUAD4  21      1       23      24      32      31
CQUAD4  22      1       25      26      34      33                      +M00007
+M00007                  .041    .041    0.0     0.0
CQUAD4  23      1       26      27      35      34                      +M00008
+M00008                  .041    .041    0.0     0.0
CQUAD4  24      1       27      28      36      35                      +M00009
+M00009                  .041    .041    0.0     0.0
CQUAD4  25      1       28      29      37      36                      +M00010
+M00010                  .041    .041    0.0     0.0
CQUAD4  26      1       29      30      38      37                      +M00011
+M00011                  .041    .041    0.0     0.0
CQUAD4  27      1       30      31      39      38                      +M00012
+M00012                  .041    .041    0.0     0.0
CQUAD4  28      1       31      32      40      39                      +M00013
+M00013                  .041    .041    0.0     0.0
PSHELL  1       1       .041    1               1
MAT1    1       8.5977+63.2554+6        0.097464                        ALUMINUM
PARAM   COUPMASS  1
PARAM   WTMASS  .0025901
PARAM   GRDPNT  17
SPC1    1       12345   9
SPC1    1       12345   25
SPC1    1       6       1       THRU    40
ASET1   3        1      THRU     8
ASET1   3       10      THRU    16
ASET1   3       18      THRU    24
ASET1   3       26      THRU    40
PARAM   KDAMP   +1
TABDMP1 2000                                                            +T2000
+T2000  0.0     0.01    1000.0  0.01    ENDT
AERO    0               2.0706  1.145-7 1
CAERO1  101     1       0       10      10                      1       +CA101
+CA101  0.0     0.0     0.0     2.07055 1.48044 5.52510 0.0     2.07055
PAERO1  1
SPLINE1 100     101     101     200     100     0.0
MKAERO1 1.3                                                             +MK
+MK     .02     .03     .04     .05     .06     .08     0.10
CORD2R  10              1.035275 0.0    0.0     1.035275 0.0    1.0     +CRD
+CRD    2.07055 -.277401 1.0
SET1    100     2       4       6       8       9       11      13      +S1
+S1     15      18      20      22      24      25      27      29      +S2
+S2     31      34      36      38      40
EIGR    10      MGIV                            8                       +ER
+ER     MAX
PARAM   OPPHIPA 1
PARAM   LMODES  8
FLUTTER 30      PK      1       2       3       L       3
FLFACT  1       0.20606                                                 DENSITY
FLFACT  2       1.3                                                     MACH NO
FLFACT  3       12000.  13200.  14400.  15600.  16680.  16740.  16800.  +FL3
+FL3    18000.  19200.  20400.  21600.  22800.  24000.
PARAM   VREF    12.0
DMI     WTFACT  0       2       1       0               200     200
DMI     WTFACT  1       1       1.2020
DMI     WTFACT  2       2       1.2020
DMI     WTFACT  3       3       1.1571
DMI     WTFACT  4       4       1.1571
DMI     WTFACT  5       5       1.1122
DMI     WTFACT  6       6       1.1122
DMI     WTFACT  7       7       1.0673
DMI     WTFACT  8       8       1.0673
DMI     WTFACT  9       9       1.0224
DMI     WTFACT  10      10      1.0224
DMI     WTFACT  11      11      0.9776
DMI     WTFACT  12      12      0.9776
DMI     WTFACT  13      13      0.9327
DMI     WTFACT  14      14      0.9327
DMI     WTFACT  15      15      0.8878
DMI     WTFACT  16      16      0.8878
DMI     WTFACT  17      17      0.8429
DMI     WTFACT  18      18      0.8429
DMI     WTFACT  19      19      0.7980
$ ... 181 like lines cut
