GRID    1                0.0     0.0     0.0
GRID    2                .211491 .7893   0.0
GRID    3                .422983 1.5786  0.0
GRID    4                .634474 2.3679  0.0
GRID    5                .845966 3.1572  0.0
GRID    6                1.05746 3.9465  0.0
GRID    7                1.26895 4.7358  0.0
GRID    8                1.48044 5.5251  0.0
GRID    9                .258819 0.0     0.0
GRID    10               .47031  .7893   0.0
GRID    11               .681802 1.5786  0.0
GRID    12               .893293 2.3679  0.0
GRID    13               1.10478 3.1572  0.0
GRID    14               1.31628 3.9465  0.0
GRID    15               1.52777 4.7358  0.0
GRID    16               1.73926 5.5251  0.0
GRID    17               1.03528 0.0     0.0
GRID    18               1.24677 .7893   0.0
GRID    19               1.45826 1.5786  0.0
GRID    20               1.66975 2.3679  0.0
$ ... 20 like lines cut
CQUAD4  1       1       1       2       10      9                       +M00000
+M00000                  0.0     0.0     .041    .041
CQUAD4  2       1       2       3       11      10                      +M00001
+M00001                  0.0     0.0     .041    .041
CQUAD4  3       1       3       4       12      11                      +M00002
+M00002                  0.0     0.0     .041    .041
CQUAD4  4       1       4       5       13      12                      +M00003
+M00003                  0.0     0.0     .041    .041
CQUAD4  5       1       5       6       14      13                      +M00004
+M00004                  0.0     0.0     .041    .041
CQUAD4  6       1       6       7       15      14                      +M00005
+M00005                  0.0     0.0     .041    .041
CQUAD4  7       1       7       8       16      15                      +M00006
+M00006                  0.0     0.0     .041    .041
CQUAD4  8       1       9       10      18      17
CQUAD4  9       1       10      11      19      18
CQUAD4  10      1       11      12      20      19
CQUAD4  11      1       12      13      21      20
CQUAD4  12      1       13      14      22      21
CQUAD4  13      1       14      15      23      22
CQUAD4  14      1       15      16      24      23
CQUAD4  15      1       17      18      26      25
CQUAD4  16      1       18      19      27      26
CQUAD4  17      1       19      20      28      27
CQUAD4  18      1       20      21      29      28
CQUAD4  19      1       21      22      30      29
CQUAD4  20      1       22      23      31      30
CQUAD4  21      1       23      24      32      31
CQUAD4  22      1       25      26      34      33                      +M00007
+M00007                  .041    .041    0.0     0.0
CQUAD4  23      1       26      27      35      34                      +M00008
+M00008                  .041    .041    0.0     0.0
CQUAD4  24      1       27      28      36      35                      +M00009
+M00009                  .041    .041    0.0     0.0
CQUAD4  25      1       28      29      37      36                      +M00010
+M00010                  .041    .041    0.0     0.0
CQUAD4  26      1       29      30      38      37                      +M00011
+M00011                  .041    .041    0.0     0.0
CQUAD4  27      1       30      31      39      38                      +M00012
+M00012                  .041    .041    0.0     0.0
CQUAD4  28      1       31      32      40      39                      +M00013
+M00013                  .041    .041    0.0     0.0
PSHELL  1       1       .041    1               1
MAT1    1       8.5977+63.2554+6        0.097464
PARAM   COUPMASS  1
PARAM   WTMASS  .0025901
SPC1    1       12345   9
SPC1    1       12345   25
SPC1    1       6       1       THRU    40
ASET1   3        1      THRU     8
ASET1   3       10      THRU    24
ASET1   3       26      THRU    40
PARAM   KDAMP   -1
TABDMP1 2000                                                            +T2000
+T2000  0.0     0.01    1000.0  0.01    ENDT
AERO    0               2.07055 1.145-7 1
CAERO3  101     1       0       11                                      +CA101
+CA101  0.0     0.0     0.0     2.07055 1.48044 5.5251  0.0     2.07055
AEFACT  11      0.21    0.79    0.63    2.37    1.06    3.95    1.48    +AEF1
+AEF1   5.53    0.26    0.0     0.68    1.58    1.10    3.16    1.53    +AEF2
+AEF2   4.74    1.25    0.79    1.67    2.37    2.09    3.95    2.52    +AEF3
+AEF3   5.53    1.81    0.0     2.23    1.58    2.66    3.16    3.08    +AEF4
+AEF4   4.74    2.28    0.79    2.71    2.37    3.13    3.95    3.55    +AEF5
+AEF5   5.53
PAERO3  1       11      0
SPLINE1 100     101     101     120     100     0.0
SET1    100     2       4       6       8       9       11      13      +S1
+S1     15      18      20      22      24      25      27      29      +S2
+S2     31      34      36      38      40
MKAERO1 1.3                                                             +MK
+MK     .03     .04     .05
EIGR    10      MGIV                             6                      +ER
+ER     MAX
PARAM   OPPHIPA 1
PARAM   LMODES  4
FLUTTER 30      PK      1       2       3       L       3
FLFACT  1       .20606                                                  DENSITY
FLFACT  2       1.3                                                     MACH NO
FLFACT  3       14400.  15600.  16800.  18000.  19200.  20400.          VELOCITY
PARAM   VREF    12.0
